@<TRIPOS>MOLECULE
MOL
  182   178     1     0     0
SMALL
resp


@<TRIPOS>ATOM
      1 C1         -1.3630    5.0030    5.7740 c3        1 MOL     -0.291349
      2 C2         -1.5310    4.3550    4.3870 c         1 MOL      0.707624
      3 O1         -0.7390    4.6440    3.4740 o         1 MOL     -0.605619
      4 H1         -1.3760    6.0880    5.6720 hc        1 MOL      0.076191
      5 H2         -2.1800    4.6890    6.4230 hc        1 MOL      0.076191
      6 H3         -0.4140    4.6910    6.2080 hc        1 MOL      0.076191
      7 N1         -2.5500    3.5710    4.2780 n         1 MOL     -0.537025
      8 C3         -2.8640    3.0210    2.9920 c3        1 MOL     -0.039364
      9 C4         -3.4100    3.9880    1.9520 c         1 MOL      0.667027
     10 O2         -4.5160    4.5170    1.9550 o         1 MOL     -0.562085
     11 C5         -3.8370    1.8040    3.0520 c3        1 MOL      0.128760
     12 C6         -3.8010    0.9100    1.8170 c         1 MOL      0.133805
     13 O3         -4.3920   -0.1710    1.7900 o         1 MOL     -0.494609
     14 O4         -3.2460    1.4470    0.8170 o         1 MOL     -0.494609
     15 H4         -3.0390    3.1910    5.0750 hn        1 MOL      0.327489
     16 H5         -1.9150    2.6340    2.6080 h1        1 MOL      0.023088
     17 H6         -4.8010    2.3120    3.1310 hc        1 MOL      0.010759
     18 H7         -3.7320    1.2030    3.9430 hc        1 MOL      0.010759
     19 N2         -2.6000    4.2370    0.9230 n         1 MOL     -0.400003
     20 C7         -2.7850    5.0050   -0.3480 c3        1 MOL     -0.015220
     21 C8         -3.9790    4.6670   -1.2170 c         1 MOL      0.554953
     22 O5         -4.4660    5.5710   -1.8460 o         1 MOL     -0.618690
     23 C9         -1.4790    5.1670   -1.1350 c3        1 MOL      0.178946
     24 C10        -1.5480    6.1380   -2.2280 c3        1 MOL      0.154281
     25 C11        -0.2030    6.4560   -2.8570 c3        1 MOL     -0.270529
     26 C12         0.4810    5.2920   -3.5890 c3        1 MOL     -0.045021
     27 N3         -0.2680    4.8720   -4.7330 n4        1 MOL     -0.340448
     28 H8         -1.7320    3.7550    1.0600 hn        1 MOL      0.198857
     29 H9         -3.0050    6.0160   -0.0150 h1        1 MOL      0.107453
     30 H10        -1.3500    4.1890   -1.6080 hc        1 MOL     -0.045867
     31 H11        -0.6900    5.4630   -0.4440 hc        1 MOL     -0.045867
     32 H12        -1.9790    7.0680   -1.8540 hc        1 MOL     -0.033492
     33 H13        -2.0740    5.7320   -3.0920 hc        1 MOL     -0.033492
     34 H14         0.4520    6.8660   -2.0930 hc        1 MOL      0.128212
     35 H15        -0.4540    7.1970   -3.6190 hc        1 MOL      0.128212
     36 H16         0.4870    4.4280   -2.9210 hx        1 MOL      0.095881
     37 H17         1.5340    5.4650   -3.7690 hx        1 MOL      0.095881
     38 H18        -0.1760    5.6780   -5.3410 hn        1 MOL      0.283199
     39 H19         0.1660    4.0370   -5.1030 hn        1 MOL      0.283199
     40 H20        -1.2620    4.7300   -4.6270 hn        1 MOL      0.283199
     41 N4         -4.5460    3.4800   -1.1820 n         1 MOL     -0.151236
     42 C13        -5.7690    3.0780   -1.9090 c3        1 MOL      0.098508
     43 C14        -6.8030    2.3250   -0.9760 c         1 MOL      0.255523
     44 O6         -7.9800    2.3460   -1.2960 o         1 MOL     -0.531563
     45 C15        -5.4910    2.2970   -3.1720 c3        1 MOL     -0.596405
     46 C16        -4.5630    1.1210   -2.9380 c         1 MOL      0.835635
     47 O7         -3.6590    0.8560   -3.7550 o         1 MOL     -0.718653
     48 O8         -4.7340    0.3780   -1.9620 o         1 MOL     -0.718653
     49 H21        -4.0400    2.7820   -0.6540 hn        1 MOL      0.040136
     50 H22        -6.2760    3.9700   -2.2870 h1        1 MOL      0.126192
     51 H23        -5.0030    3.0090   -3.8290 hc        1 MOL      0.172334
     52 H24        -6.4770    1.9910   -3.5410 hc        1 MOL      0.172334
     53 N5         -6.4210    1.6220    0.0800 n         1 MOL      0.264919
     54 C17        -7.3350    1.0270    1.0330 c3        1 MOL     -0.443414
     55 C18        -7.5530   -0.5040    0.7330 c         1 MOL      0.657335
     56 O9         -8.1870   -1.2040    1.4960 o         1 MOL     -0.549730
     57 H25        -5.4400    1.7910    0.2640 hn        1 MOL     -0.031310
     58 H26        -8.2780    1.5800    0.9710 h1        1 MOL      0.167463
     59 H27        -6.8310    1.1320    1.9950 h1        1 MOL      0.167463
     60 N6         -7.0020   -0.9590   -0.4150 n         1 MOL     -0.299343
     61 C19        -7.1780   -2.3780   -0.7770 c3        1 MOL     -0.077802
     62 C20        -5.8240   -3.1800   -0.6280 c         1 MOL      0.780580
     63 O10        -4.8110   -2.5430   -0.4400 o         1 MOL     -0.611643
     64 C21        -7.7930   -2.3900   -2.2200 c3        1 MOL     -0.077643
     65 C22        -6.8980   -2.0880   -3.3600 c         1 MOL      0.587893
     66 N7         -7.2610   -1.0490   -4.0900 n         1 MOL     -0.681750
     67 O11        -5.8570   -2.7860   -3.6370 o         1 MOL     -0.582668
     68 H28        -6.3700   -0.3530   -0.8980 hn        1 MOL      0.147696
     69 H29        -7.8860   -2.8060   -0.0640 h1        1 MOL      0.076032
     70 H30        -8.6930   -1.7780   -2.2800 hc        1 MOL      0.040288
     71 H31        -8.2010   -3.3390   -2.5510 hc        1 MOL      0.040288
     72 H32        -8.2280   -0.7740   -3.9960 hn        1 MOL      0.346777
     73 H33        -6.5750   -0.5920   -4.6860 hn        1 MOL      0.346777
     74 N8         -5.9180   -4.5010   -0.8300 n         1 MOL     -0.637943
     75 C23        -4.6690   -5.3600   -0.8080 c3        1 MOL      0.045566
     76 C24        -3.7420   -5.2310    0.3660 c         1 MOL      0.502631
     77 O12        -4.1810   -5.0630    1.5100 o         1 MOL     -0.481107
     78 H34        -6.8030   -4.9730   -0.9680 hn        1 MOL      0.359313
     79 H35        -4.1500   -5.1520   -1.7510 h1        1 MOL      0.077649
     80 H36        -4.8550   -6.4330   -0.9000 h1        1 MOL      0.077649
     81 N9         -2.4190   -5.3720    0.1500 n         1 MOL     -0.467350
     82 C25        -1.4950   -5.1450    1.3060 c3        1 MOL      0.004088
     83 C26        -1.6140   -3.6690    1.7870 c         1 MOL      0.619993
     84 O13        -2.2410   -2.7990    1.1460 o         1 MOL     -0.576835
     85 C27        -0.1320   -5.6220    0.7940 c3        1 MOL     -0.230696
     86 C28         0.4620   -4.7920   -0.3000 ca        1 MOL      0.117835
     87 C29         1.4000   -3.7950    0.0150 ca        1 MOL     -0.152747
     88 C30         0.1510   -5.1510   -1.6290 ca        1 MOL     -0.152747
     89 C31         2.0710   -3.1850   -1.1120 ca        1 MOL     -0.288483
     90 C32         0.8750   -4.6030   -2.7020 ca        1 MOL     -0.288483
     91 C33         1.7910   -3.6090   -2.4420 ca        1 MOL      0.449923
     92 O14         2.4450   -3.0990   -3.5650 oh        1 MOL     -0.537279
     93 H37        -2.0590   -5.5520   -0.7740 hn        1 MOL      0.254770
     94 H38        -1.8860   -5.6900    2.1710 h1        1 MOL      0.103059
     95 H39        -0.2760   -6.6480    0.4620 hc        1 MOL      0.094880
     96 H40         0.6240   -5.6020    1.5800 hc        1 MOL      0.094880
     97 H41         1.6030   -3.5360    1.0380 ha        1 MOL      0.131741
     98 H42        -0.5350   -5.9530   -1.8630 ha        1 MOL      0.131741
     99 H43         2.6760   -2.3000   -0.9680 ha        1 MOL      0.150400
    100 H44         0.6390   -4.9140   -3.7070 ha        1 MOL      0.150400
    101 H45         1.9720   -3.3540   -4.3590 ho        1 MOL      0.372160
    102 N10        -0.8640   -3.2720    2.8210 n         1 MOL     -0.576006
    103 C34        -0.4420   -1.9340    3.2100 c3        1 MOL      0.013385
    104 C35         0.1640   -1.0430    2.1140 c         1 MOL      0.465715
    105 O15        -0.5240   -0.6950    1.1830 o         1 MOL     -0.516375
    106 C36        -1.5410   -1.1690    4.0310 c3        1 MOL      0.566120
    107 C37        -1.0070    0.1070    4.6760 c3        1 MOL     -0.311226
    108 C38        -2.3650   -2.0320    5.0680 c3        1 MOL     -0.350673
    109 C39         0.3070   -0.0580    5.5270 c3        1 MOL     -0.189638
    110 H46        -0.4240   -3.9880    3.3800 hn        1 MOL      0.316318
    111 H47         0.3790   -2.0440    3.9140 h1        1 MOL      0.011059
    112 H48        -2.1690   -0.8000    3.2200 hc        1 MOL     -0.060581
    113 H49        -1.6830    0.5640    5.4060 hc        1 MOL      0.089118
    114 H50        -0.8400    0.8530    3.8920 hc        1 MOL      0.089118
    115 H51        -1.6710   -2.5870    5.6890 hc        1 MOL      0.083189
    116 H52        -2.9390   -1.2830    5.6130 hc        1 MOL      0.083189
    117 H53        -3.0950   -2.7330    4.6370 hc        1 MOL      0.083189
    118 H54         1.1450    0.0010    4.8310 hc        1 MOL      0.042510
    119 H55         0.4360    0.7510    6.2470 hc        1 MOL      0.042510
    120 H56         0.3080   -1.0060    6.0580 hc        1 MOL      0.042510
    121 N11         1.4830   -0.6370    2.2980 n         1 MOL     -0.310939
    122 C40         2.1500    0.3920    1.4370 c3        1 MOL      0.085651
    123 C41         3.4600    0.1260    0.7600 c         1 MOL      0.502696
    124 O16         3.7870    0.7580   -0.2230 o         1 MOL     -0.559107
    125 C42         2.4320    1.6670    2.3140 c3        1 MOL      0.056119
    126 O17         1.2290    2.3410    2.8300 oh        1 MOL     -0.487462
    127 H57         1.9650   -1.0260    3.0960 hn        1 MOL      0.231667
    128 H58         1.4070    0.6970    0.7030 h1        1 MOL      0.063869
    129 H59         2.9260    2.4190    1.7070 h1        1 MOL      0.049604
    130 H60         3.1000    1.3690    3.1170 h1        1 MOL      0.049604
    131 H61         1.4930    2.8000    3.6360 ho        1 MOL      0.372039
    132 N12         4.2160   -0.7940    1.2530 n         1 MOL     -0.488076
    133 C43         5.5910   -0.9550    0.7830 c3        1 MOL      0.320021
    134 C44         5.7730   -1.8390   -0.4590 c         1 MOL      0.439147
    135 O18         5.0450   -2.8170   -0.7600 o         1 MOL     -0.497552
    136 C45         6.2730   -1.3420    2.0710 c3        1 MOL     -0.437940
    137 H62         3.8090   -1.4830    1.8710 hn        1 MOL      0.255167
    138 H63         5.9870    0.0500    0.6610 h1        1 MOL      0.092050
    139 H64         5.7140   -2.0810    2.6470 hc        1 MOL      0.114124
    140 H65         7.2690   -1.7560    1.9510 hc        1 MOL      0.114124
    141 H66         6.4320   -0.3850    2.5830 hc        1 MOL      0.114124
    142 N13         6.7410   -1.6050   -1.3180 n         1 MOL     -0.512309
    143 C46         7.8260   -0.6430   -1.3320 c3        1 MOL      0.354226
    144 C47         9.1450   -1.2100   -1.8450 c         1 MOL      0.425979
    145 O19         9.1390   -2.1390   -2.6480 o         1 MOL     -0.513778
    146 C48         7.3870    0.6600   -2.0010 c3        1 MOL     -0.140232
    147 H67         6.7770   -2.3890   -1.9510 hn        1 MOL      0.301216
    148 H68         8.1210   -0.3960   -0.3030 h1        1 MOL     -0.077516
    149 H69         7.7880    1.5370   -1.4940 hc        1 MOL      0.046052
    150 H70         7.6920    0.6480   -3.0460 hc        1 MOL      0.046052
    151 H71         6.3020    0.8070   -2.0500 hc        1 MOL      0.046052
    152 N14        10.3090   -0.7130   -1.3580 n         1 MOL     -0.501112
    153 C49        10.5220    0.2580   -0.3100 c3        1 MOL     -0.172371
    154 C50        10.4160   -0.2730    1.1300 c         1 MOL      0.499261
    155 O20        10.2910    0.5560    2.0300 o         1 MOL     -0.528905
    156 C51        11.9500    0.8460   -0.4550 c3        1 MOL     -0.087000
    157 C52        12.0670    1.8220   -1.7190 c3        1 MOL     -0.140298
    158 C53        13.4310    2.6700   -1.7610 c         1 MOL      0.662198
    159 O21        13.3170    3.9380   -1.8230 o         1 MOL     -0.628282
    160 O22        14.5480    2.1150   -1.8210 o         1 MOL     -0.628282
    161 H72        11.1810   -1.0070   -1.7820 hn        1 MOL      0.361439
    162 H73         9.7200    0.9390   -0.5710 h1        1 MOL      0.178736
    163 H74        12.7220    0.0680   -0.5070 hc        1 MOL      0.073385
    164 H75        12.1310    1.5290    0.3730 hc        1 MOL      0.073385
    165 H76        11.2220    2.5100   -1.6330 hc        1 MOL      0.018282
    166 H77        12.0070    1.2430   -2.6360 hc        1 MOL      0.018282
    167 N15        10.4400   -1.5720    1.3730 n         1 MOL     -0.229712
    168 C54        10.2470   -2.1670    2.6910 c3        1 MOL     -0.256929
    169 H78        10.5170   -3.2220    2.6550 h1        1 MOL      0.116757
    170 H79        10.8790   -1.6550    3.4180 h1        1 MOL      0.116757
    171 H80         9.2030   -2.0700    2.9850 h1        1 MOL      0.116757
    172 H81        10.7510   -2.1280    0.5990 hn        1 MOL      0.239897
    173 Ca1        -2.7330   -0.6810   -0.6070 Ca        1 MOL      1.812352
    174 O23        -0.3690   -1.0860   -1.9520 oh        1 MOL     -0.876376
    175 H82        -0.2570   -1.2910   -2.8750 ho        1 MOL      0.417032
    176 H83         0.4650   -0.7120   -1.6840 ho        1 MOL      0.417032
    177 O24        -3.3490   -1.8380   -2.9610 oh        1 MOL     -0.876376
    178 H84        -4.0360   -2.4370   -3.2490 ho        1 MOL      0.417032
    179 H85        -3.5780   -0.9970   -3.3600 ho        1 MOL      0.417032
    180 O25        -1.6280    1.5490   -1.8200 oh        1 MOL     -0.876376
    181 H86        -1.3980    2.0580   -2.5980 ho        1 MOL      0.417032
    182 H87        -1.1180    1.9490   -1.1110 ho        1 MOL      0.417032
@<TRIPOS>BOND
     1    1    2 1   
     2    1    4 1   
     3    1    5 1   
     4    1    6 1   
     5    2    3 2   
     6    2    7 1   
     7    7    8 1   
     8    7   15 1   
     9    8    9 1   
    10    8   11 1   
    11    8   16 1   
    12    9   10 2   
    13    9   19 1   
    14   11   12 1   
    15   11   17 1   
    16   11   18 1   
    17   12   13 1   
    18   12   14 1   
    19   19   20 1   
    20   19   28 1   
    21   20   21 1   
    22   20   23 1   
    23   20   29 1   
    24   21   22 2   
    25   21   41 1   
    26   23   24 1   
    27   23   30 1   
    28   23   31 1   
    29   24   25 1   
    30   24   32 1   
    31   24   33 1   
    32   25   26 1   
    33   25   34 1   
    34   25   35 1   
    35   26   27 1   
    36   26   36 1   
    37   26   37 1   
    38   27   38 1   
    39   27   39 1   
    40   27   40 1   
    41   41   42 1   
    42   41   49 1   
    43   42   43 1   
    44   42   45 1   
    45   42   50 1   
    46   43   44 2   
    47   43   53 1   
    48   45   46 1   
    49   45   51 1   
    50   45   52 1   
    51   46   47 1   
    52   46   48 1   
    53   53   54 1   
    54   53   57 1   
    55   54   55 1   
    56   54   58 1   
    57   54   59 1   
    58   55   56 2   
    59   55   60 1   
    60   60   61 1   
    61   60   68 1   
    62   61   62 1   
    63   61   64 1   
    64   61   69 1   
    65   62   63 2   
    66   62   74 1   
    67   64   65 1   
    68   64   70 1   
    69   64   71 1   
    70   65   66 1   
    71   65   67 2   
    72   66   72 1   
    73   66   73 1   
    74   74   75 1   
    75   74   78 1   
    76   75   76 1   
    77   75   79 1   
    78   75   80 1   
    79   76   77 2   
    80   76   81 1   
    81   81   82 1   
    82   81   93 1   
    83   82   83 1   
    84   82   85 1   
    85   82   94 1   
    86   83   84 2   
    87   83  102 1   
    88   85   86 1   
    89   85   95 1   
    90   85   96 1   
    91   86   87 ar  
    92   86   88 ar  
    93   87   89 ar  
    94   87   97 1   
    95   88   90 ar  
    96   88   98 1   
    97   89   91 ar  
    98   89   99 1   
    99   90   91 ar  
   100   90  100 1   
   101   91   92 1   
   102   92  101 1   
   103  102  103 1   
   104  102  110 1   
   105  103  104 1   
   106  103  106 1   
   107  103  111 1   
   108  104  105 2   
   109  104  121 1   
   110  106  107 1   
   111  106  108 1   
   112  106  112 1   
   113  107  109 1   
   114  107  113 1   
   115  107  114 1   
   116  108  115 1   
   117  108  116 1   
   118  108  117 1   
   119  109  118 1   
   120  109  119 1   
   121  109  120 1   
   122  121  122 1   
   123  121  127 1   
   124  122  123 1   
   125  122  125 1   
   126  122  128 1   
   127  123  124 2   
   128  123  132 1   
   129  125  126 1   
   130  125  129 1   
   131  125  130 1   
   132  126  131 1   
   133  132  133 1   
   134  132  137 1   
   135  133  134 1   
   136  133  136 1   
   137  133  138 1   
   138  134  135 2   
   139  134  142 1   
   140  136  139 1   
   141  136  140 1   
   142  136  141 1   
   143  142  143 1   
   144  142  147 1   
   145  143  144 1   
   146  143  146 1   
   147  143  148 1   
   148  144  145 2   
   149  144  152 1   
   150  146  149 1   
   151  146  150 1   
   152  146  151 1   
   153  152  153 1   
   154  152  161 1   
   155  153  154 1   
   156  153  156 1   
   157  153  162 1   
   158  154  155 2   
   159  154  167 1   
   160  156  157 1   
   161  156  163 1   
   162  156  164 1   
   163  157  158 1   
   164  157  165 1   
   165  157  166 1   
   166  158  159 1   
   167  158  160 1   
   168  167  168 1   
   169  167  172 1   
   170  168  169 1   
   171  168  170 1   
   172  168  171 1   
   173  174  175 1   
   174  174  176 1   
   175  177  178 1   
   176  177  179 1   
   177  180  181 1   
   178  180  182 1   
@<TRIPOS>SUBSTRUCTURE
     1 MOL         1 TEMP              0 ****  ****    0 ROOT
