@<TRIPOS>MOLECULE
MOL
  181   177     1     0     0
SMALL
resp


@<TRIPOS>ATOM
      1 C1         -2.6220   -6.8770   -2.1440 c3        1 MOL     -0.360913
      2 C2         -3.9310   -6.8400   -1.4660 c         1 MOL      0.673527
      3 O1         -4.2150   -7.5460   -0.4610 o         1 MOL     -0.603712
      4 H1         -2.6650   -7.5790   -2.9770 hc        1 MOL      0.091993
      5 H2         -2.3780   -5.8830   -2.5190 hc        1 MOL      0.091993
      6 H3         -1.8560   -7.1980   -1.4380 hc        1 MOL      0.091993
      7 N1         -4.8460   -6.0450   -1.9590 n         1 MOL     -0.561764
      8 C3         -6.1870   -5.7960   -1.3930 c3        1 MOL      0.349882
      9 C4         -6.1590   -4.5910   -0.4010 c         1 MOL      0.537626
     10 O2         -6.6370   -3.4710   -0.6210 o         1 MOL     -0.515552
     11 C5         -7.3390   -5.6500   -2.4230 c3        1 MOL     -0.529644
     12 C6         -8.7500   -5.4430   -1.7760 c         1 MOL      0.830969
     13 O3         -9.7030   -4.8390   -2.3300 o         1 MOL     -0.741980
     14 O4         -9.0640   -6.0850   -0.7420 o         1 MOL     -0.741980
     15 H4         -4.5000   -5.4860   -2.7260 hn        1 MOL      0.295033
     16 H5         -6.3920   -6.6780   -0.7690 h1        1 MOL      0.031286
     17 H6         -7.4400   -6.5600   -3.0170 hc        1 MOL      0.088740
     18 H7         -7.0050   -4.8740   -3.1080 hc        1 MOL      0.088740
     19 N2         -5.5570   -4.9060    0.7680 n         1 MOL     -0.706315
     20 C7         -5.3970   -3.9940    1.9240 c3        1 MOL      0.568132
     21 C8         -3.9120   -3.8230    2.3380 c         1 MOL      0.436491
     22 O5         -3.0520   -4.7130    2.2680 o         1 MOL     -0.572516
     23 C9         -6.2990   -4.5090    3.0660 c3        1 MOL     -0.538323
     24 H8         -5.1640   -5.8220    0.9420 hn        1 MOL      0.320434
     25 H9         -5.7250   -3.0350    1.5350 h1        1 MOL     -0.029554
     26 H10        -6.2630   -3.8130    3.9070 hc        1 MOL      0.134512
     27 H11        -7.3000   -4.5330    2.6390 hc        1 MOL      0.134512
     28 H12        -5.8750   -5.4840    3.3160 hc        1 MOL      0.134512
     29 N3         -3.5090   -2.6390    2.6710 n         1 MOL     -0.318792
     30 C10        -4.2570   -1.4370    3.0810 c3        1 MOL     -0.018161
     31 C11        -4.4390   -0.4330    1.9930 c         1 MOL      0.377632
     32 O6         -3.5490   -0.1720    1.1030 o         1 MOL     -0.479969
     33 C12        -3.7190   -0.8210    4.3510 c3        1 MOL     -0.275850
     34 C13        -2.2230   -0.4230    4.1970 c         1 MOL      0.682117
     35 O7         -1.9930    0.5380    3.3720 o         1 MOL     -0.647407
     36 O8         -1.3340   -1.1070    4.7810 o         1 MOL     -0.647407
     37 H13        -2.5170   -2.6910    2.8950 hn        1 MOL      0.239163
     38 H14        -5.2700   -1.7590    3.3510 h1        1 MOL      0.070505
     39 H15        -3.8440   -1.5970    5.1040 hc        1 MOL      0.071798
     40 H16        -4.3920    0.0140    4.5420 hc        1 MOL      0.071798
     41 N4         -5.4820    0.4110    2.0230 n         1 MOL     -0.396798
     42 C14        -5.5090    1.6390    1.2590 c3        1 MOL      0.013156
     43 C15        -5.5970    1.6050   -0.2580 c         1 MOL      0.575487
     44 O9         -5.8250    0.5240   -0.7940 o         1 MOL     -0.476752
     45 H17        -6.1190    0.2770    2.7890 hn        1 MOL      0.301996
     46 H18        -4.6210    2.1810    1.6130 h1        1 MOL      0.058102
     47 H19        -6.4060    2.1700    1.5810 h1        1 MOL      0.058102
     48 N5         -5.7040    2.7080   -1.0630 n         1 MOL     -0.572750
     49 C16        -5.2910    4.1350   -0.7150 c3        1 MOL      0.338003
     50 C17        -4.2500    4.7940   -1.6230 c         1 MOL      0.465086
     51 O10        -3.6910    4.0510   -2.4720 o         1 MOL     -0.485234
     52 C18        -6.4740    4.9990   -0.4790 c3        1 MOL     -0.349047
     53 C19        -7.1390    5.3120   -1.7750 c         1 MOL      0.654587
     54 N6         -7.9130    4.3270   -2.2040 n         1 MOL     -0.704339
     55 O11        -6.9560    6.4020   -2.3270 o         1 MOL     -0.572239
     56 H20        -5.7810    2.4090   -2.0230 hn        1 MOL      0.298911
     57 H21        -4.7790    3.9720    0.2410 h1        1 MOL     -0.038304
     58 H22        -6.2230    5.9630   -0.0550 hc        1 MOL      0.076310
     59 H23        -7.2200    4.5240    0.1590 hc        1 MOL      0.076310
     60 H24        -8.0840    3.5420   -1.5930 hn        1 MOL      0.341329
     61 H25        -8.5660    4.5130   -2.9630 hn        1 MOL      0.341329
     62 N7         -3.9300    6.0940   -1.3560 n         1 MOL     -0.320753
     63 C20        -3.0390    6.7500   -2.3510 c3        1 MOL     -0.245949
     64 C21        -1.5040    6.6350   -2.0710 c         1 MOL      0.513787
     65 O12        -0.7260    7.0070   -2.9220 o         1 MOL     -0.522623
     66 H26        -4.3790    6.6080   -0.6150 hn        1 MOL      0.276556
     67 H27        -3.3280    7.8010   -2.4330 h1        1 MOL      0.146020
     68 H28        -3.2000    6.2860   -3.3190 h1        1 MOL      0.146020
     69 N8         -1.1330    6.1250   -0.8790 n         1 MOL     -0.315656
     70 C22         0.2510    6.0020   -0.4080 c3        1 MOL     -0.088200
     71 C23         0.9150    4.6240   -0.7350 c         1 MOL      0.644334
     72 O13         0.2910    3.5330   -0.7420 o         1 MOL     -0.573176
     73 C24         0.4340    6.3220    1.0820 c3        1 MOL      0.682624
     74 C25        -0.0420    7.7000    1.4700 c3        1 MOL     -0.431360
     75 O14        -0.1330    5.2980    1.8390 oh        1 MOL     -0.712132
     76 H29        -1.8480    6.0230   -0.1680 hn        1 MOL      0.197028
     77 H30         0.8170    6.8080   -0.8950 h1        1 MOL      0.040472
     78 H31         1.4900    6.3130    1.3500 h1        1 MOL     -0.067402
     79 H32         0.3290    5.2940    2.6840 ho        1 MOL      0.438088
     80 H33         0.1310    7.8950    2.5290 hc        1 MOL      0.087481
     81 H34         0.4720    8.4340    0.8480 hc        1 MOL      0.087481
     82 H35        -1.1250    7.7100    1.3300 hc        1 MOL      0.087481
     83 N9          2.2130    4.7380   -0.8800 n         1 MOL     -0.534721
     84 C26         3.1870    3.5870   -0.7460 c3        1 MOL      0.056633
     85 C27         3.4140    3.3940    0.7430 c         1 MOL      0.332971
     86 O15         3.4860    4.3820    1.4820 o         1 MOL     -0.532703
     87 C28         4.4440    3.8190   -1.6140 c3        1 MOL      0.225879
     88 C29         5.4750    2.6900   -1.3060 c3        1 MOL     -0.027118
     89 C30         4.0220    3.8470   -3.1190 c3        1 MOL     -0.383601
     90 C31         6.7810    2.6240   -2.1240 c3        1 MOL     -0.145791
     91 H36         2.5410    5.6900   -0.7890 hn        1 MOL      0.275187
     92 H37         2.7060    2.6600   -1.0410 h1        1 MOL      0.125257
     93 H38         4.9090    4.7460   -1.2760 hc        1 MOL     -0.013858
     94 H39         4.9390    1.7490   -1.4630 hc        1 MOL      0.041343
     95 H40         5.8160    2.6890   -0.2710 hc        1 MOL      0.041343
     96 H41         3.3560    4.6400   -3.4450 hc        1 MOL      0.097808
     97 H42         4.8550    3.8260   -3.8200 hc        1 MOL      0.097808
     98 H43         3.4760    2.9140   -3.2630 hc        1 MOL      0.097808
     99 H44         7.2990    1.7100   -1.8200 hc        1 MOL      0.019427
    100 H45         6.5420    2.5490   -3.1790 hc        1 MOL      0.019427
    101 H46         7.4200    3.4990   -1.9840 hc        1 MOL      0.019427
    102 N10         3.5530    2.1800    1.2390 n         1 MOL     -0.037360
    103 C32         4.0400    1.8400    2.5490 c3        1 MOL     -0.178025
    104 C33         5.2700    0.8760    2.5220 c         1 MOL      0.557237
    105 O16         6.1260    0.9130    3.4020 o         1 MOL     -0.547395
    106 C34         2.8810    1.2680    3.4290 c3        1 MOL     -0.007979
    107 C35         1.5280    2.0660    3.3600 c         1 MOL      0.761082
    108 O17         0.6420    1.7350    2.5490 o         1 MOL     -0.735107
    109 O18         1.3370    2.9460    4.2290 o         1 MOL     -0.735107
    110 H47         3.5140    1.3920    0.6140 hn        1 MOL      0.015140
    111 H48         4.4060    2.7610    2.9910 h1        1 MOL      0.111040
    112 H49         3.2450    1.1880    4.4530 hc        1 MOL      0.000864
    113 H50         2.7170    0.2340    3.1340 hc        1 MOL      0.000864
    114 N11         5.4590    0.1270    1.4050 n         1 MOL     -0.432602
    115 C36         6.3180   -0.9950    1.2280 c3        1 MOL      0.274138
    116 C37         5.6230   -2.2040    0.4990 c         1 MOL      0.301464
    117 O19         6.0970   -2.6550   -0.5500 o         1 MOL     -0.482908
    118 C38         7.6620   -0.5550    0.7090 c3        1 MOL     -0.210594
    119 C39         8.7420   -1.5670    0.4810 ca        1 MOL      0.117095
    120 C40         9.5580   -1.5410   -0.6420 ca        1 MOL     -0.188895
    121 C41         8.9250   -2.6080    1.4670 ca        1 MOL     -0.188895
    122 C42        10.5710   -2.5050   -0.8200 ca        1 MOL     -0.063191
    123 C43         9.8990   -3.5850    1.3000 ca        1 MOL     -0.063191
    124 C44        10.7420   -3.4760    0.1740 ca        1 MOL     -0.195652
    125 H51         4.7650    0.1730    0.6690 hn        1 MOL      0.255454
    126 H52         6.5120   -1.3620    2.2360 h1        1 MOL      0.010405
    127 H53         8.0240    0.2470    1.3510 hc        1 MOL      0.090574
    128 H54         7.5670   -0.0340   -0.2430 hc        1 MOL      0.090574
    129 H55         9.3910   -0.7950   -1.4190 ha        1 MOL      0.119412
    130 H56         8.3370   -2.6280    2.3680 ha        1 MOL      0.119412
    131 H57        11.2540   -2.6030   -1.6460 ha        1 MOL      0.096662
    132 H58         9.9940   -4.3640    2.0380 ha        1 MOL      0.096662
    133 H59        11.4560   -4.2850    0.0980 ha        1 MOL      0.104860
    134 N12         4.4690   -2.7090    0.8770 n         1 MOL     -0.158150
    135 C45         3.7840   -3.9040    0.3470 c3        1 MOL     -0.029072
    136 C46         3.4830   -3.8930   -1.1650 c         1 MOL      0.214631
    137 O20         3.0230   -4.8840   -1.6640 o         1 MOL     -0.487942
    138 C47         2.5000   -4.1110    1.0580 c3        1 MOL     -0.165467
    139 C48         2.8130   -3.3620    2.3550 c3        1 MOL     -0.019339
    140 C49         3.6710   -2.2270    2.0240 c3        1 MOL      0.073943
    141 H60         4.4920   -4.6910    0.6080 h1        1 MOL      0.111565
    142 H61         1.7050   -3.5550    0.5470 hc        1 MOL      0.102078
    143 H62         2.2710   -5.1640    1.1900 hc        1 MOL      0.102078
    144 H63         1.9730   -3.1110    2.9970 hc        1 MOL      0.009770
    145 H64         3.5160   -3.9650    2.9270 hc        1 MOL      0.009770
    146 H65         3.0150   -1.3970    1.7980 h1        1 MOL      0.055122
    147 H66         4.2320   -2.0320    2.9450 h1        1 MOL      0.055122
    148 N13         3.6100   -2.7370   -1.7370 n         1 MOL      0.134976
    149 C50         3.2550   -2.4400   -3.1560 c3        1 MOL     -0.182478
    150 C51         4.2840   -2.9030   -4.1900 c         1 MOL      0.478888
    151 O21         3.8920   -3.4460   -5.1910 o         1 MOL     -0.530864
    152 C52         3.0140   -0.9140   -3.3290 c3        1 MOL      0.166116
    153 C53         1.7740   -0.5360   -2.6100 c3        1 MOL     -0.295663
    154 C54         2.0600   -0.0400   -1.2050 c         1 MOL      0.928711
    155 O22         1.0090    0.1890   -0.5740 o         1 MOL     -0.823240
    156 O23         3.1790   -0.0120   -0.6980 o         1 MOL     -0.823240
    157 H67         3.7720   -1.9120   -1.1700 hn        1 MOL      0.214453
    158 H68         2.2930   -2.9370   -3.2320 h1        1 MOL      0.086126
    159 H69         2.8030   -0.6650   -4.3620 hc        1 MOL     -0.034126
    160 H70         3.9110   -0.3990   -2.9930 hc        1 MOL     -0.034126
    161 H71         1.1230   -1.3930   -2.4760 hc        1 MOL      0.072547
    162 H72         1.4600    0.3260   -3.1990 hc        1 MOL      0.072547
    163 N14         5.5750   -2.8130   -3.8440 n         1 MOL     -0.277155
    164 C55         6.6580   -3.5680   -4.5090 c3        1 MOL     -0.188529
    165 H73         6.2260   -4.3760   -5.1000 h1        1 MOL      0.093561
    166 H74         7.2190   -2.9000   -5.1620 h1        1 MOL      0.093561
    167 H75         7.3250   -3.9860   -3.7550 h1        1 MOL      0.093561
    168 H76         5.7720   -2.5280   -2.9010 hn        1 MOL      0.196636
    169 Ca1        -0.9370    0.6350    0.9250 Ca        1 MOL      1.799452
    170 O24        -1.8550    3.1070    1.3420 oh        1 MOL     -0.874785
    171 H77        -1.2780    3.8720    1.4220 ho        1 MOL      0.414729
    172 H78        -2.3070    3.0710    2.1920 ho        1 MOL      0.414729
    173 O25         0.0860   -1.4370    2.2650 oh        1 MOL     -0.874785
    174 H79         0.3570   -2.3060    1.9680 ho        1 MOL      0.414729
    175 H80        -0.2160   -1.5720    3.1570 ho        1 MOL      0.414729
    176 O26        -1.8580    2.0190   -1.3620 oh        1 MOL     -0.874785
    177 H81        -1.2170    2.7310   -1.2700 ho        1 MOL      0.414729
    178 H82        -2.2470    2.1630   -2.2230 ho        1 MOL      0.414729
    179 O27        -1.4580   -1.3860   -0.6130 oh        1 MOL     -0.874785
    180 H83        -2.3790   -1.6570   -0.6830 ho        1 MOL      0.414729
    181 H84        -1.0880   -1.5850   -1.4780 ho        1 MOL      0.414729
@<TRIPOS>BOND
     1    1    2 1   
     2    1    4 1   
     3    1    5 1   
     4    1    6 1   
     5    2    3 2   
     6    2    7 1   
     7    7    8 1   
     8    7   15 1   
     9    8    9 1   
    10    8   11 1   
    11    8   16 1   
    12    9   10 2   
    13    9   19 1   
    14   11   12 1   
    15   11   17 1   
    16   11   18 1   
    17   12   13 1   
    18   12   14 1   
    19   19   20 1   
    20   19   24 1   
    21   20   21 1   
    22   20   23 1   
    23   20   25 1   
    24   21   22 2   
    25   21   29 1   
    26   23   26 1   
    27   23   27 1   
    28   23   28 1   
    29   29   30 1   
    30   29   37 1   
    31   30   31 1   
    32   30   33 1   
    33   30   38 1   
    34   31   32 2   
    35   31   41 1   
    36   33   34 1   
    37   33   39 1   
    38   33   40 1   
    39   34   35 1   
    40   34   36 1   
    41   41   42 1   
    42   41   45 1   
    43   42   43 1   
    44   42   46 1   
    45   42   47 1   
    46   43   44 2   
    47   43   48 1   
    48   48   49 1   
    49   48   56 1   
    50   49   50 1   
    51   49   52 1   
    52   49   57 1   
    53   50   51 2   
    54   50   62 1   
    55   52   53 1   
    56   52   58 1   
    57   52   59 1   
    58   53   54 1   
    59   53   55 2   
    60   54   60 1   
    61   54   61 1   
    62   62   63 1   
    63   62   66 1   
    64   63   64 1   
    65   63   67 1   
    66   63   68 1   
    67   64   65 2   
    68   64   69 1   
    69   69   70 1   
    70   69   76 1   
    71   70   71 1   
    72   70   73 1   
    73   70   77 1   
    74   71   72 2   
    75   71   83 1   
    76   73   74 1   
    77   73   75 1   
    78   73   78 1   
    79   74   80 1   
    80   74   81 1   
    81   74   82 1   
    82   75   79 1   
    83   83   84 1   
    84   83   91 1   
    85   84   85 1   
    86   84   87 1   
    87   84   92 1   
    88   85   86 2   
    89   85  102 1   
    90   87   88 1   
    91   87   89 1   
    92   87   93 1   
    93   88   90 1   
    94   88   94 1   
    95   88   95 1   
    96   89   96 1   
    97   89   97 1   
    98   89   98 1   
    99   90   99 1   
   100   90  100 1   
   101   90  101 1   
   102  102  103 1   
   103  102  110 1   
   104  103  104 1   
   105  103  106 1   
   106  103  111 1   
   107  104  105 2   
   108  104  114 1   
   109  106  107 1   
   110  106  112 1   
   111  106  113 1   
   112  107  108 1   
   113  107  109 1   
   114  114  115 1   
   115  114  125 1   
   116  115  116 1   
   117  115  118 1   
   118  115  126 1   
   119  116  117 2   
   120  116  134 1   
   121  118  119 1   
   122  118  127 1   
   123  118  128 1   
   124  119  120 ar  
   125  119  121 ar  
   126  120  122 ar  
   127  120  129 1   
   128  121  123 ar  
   129  121  130 1   
   130  122  124 ar  
   131  122  131 1   
   132  123  124 ar  
   133  123  132 1   
   134  124  133 1   
   135  134  135 1   
   136  134  140 1   
   137  135  136 1   
   138  135  138 1   
   139  135  141 1   
   140  136  137 2   
   141  136  148 1   
   142  138  139 1   
   143  138  142 1   
   144  138  143 1   
   145  139  140 1   
   146  139  144 1   
   147  139  145 1   
   148  140  146 1   
   149  140  147 1   
   150  148  149 1   
   151  148  157 1   
   152  149  150 1   
   153  149  152 1   
   154  149  158 1   
   155  150  151 2   
   156  150  163 1   
   157  152  153 1   
   158  152  159 1   
   159  152  160 1   
   160  153  154 1   
   161  153  161 1   
   162  153  162 1   
   163  154  155 1   
   164  154  156 1   
   165  163  164 1   
   166  163  168 1   
   167  164  165 1   
   168  164  166 1   
   169  164  167 1   
   170  170  171 1   
   171  170  172 1   
   172  173  174 1   
   173  173  175 1   
   174  176  177 1   
   175  176  178 1   
   176  179  180 1   
   177  179  181 1   
@<TRIPOS>SUBSTRUCTURE
     1 MOL         1 TEMP              0 ****  ****    0 ROOT
