@<TRIPOS>MOLECULE
MOL
  181   177     1     0     0
SMALL
resp


@<TRIPOS>ATOM
      1 C1         10.1340    7.4010   -0.5960 c3        1 MOL     -0.342162
      2 C2          9.1270    6.2850   -0.1090 c         1 MOL      0.630356
      3 O1          8.4180    6.4760    0.8700 o         1 MOL     -0.556035
      4 H1         10.5820    7.0980   -1.5430 hc        1 MOL      0.095798
      5 H2          9.5980    8.3400   -0.7340 hc        1 MOL      0.095798
      6 H3         10.9180    7.5350    0.1490 hc        1 MOL      0.095798
      7 N1          9.1220    5.0310   -0.6160 n         1 MOL     -0.554539
      8 C3         10.0130    4.3830   -1.5160 c3        1 MOL      0.314374
      9 C4         10.9910    3.4970   -0.6810 c         1 MOL      0.462285
     10 O2         12.1700    3.5120   -1.0160 o         1 MOL     -0.586669
     11 C5          9.4290    3.5790   -2.6970 c3        1 MOL     -0.291441
     12 C6          8.5910    2.3780   -2.2740 c         1 MOL      0.723048
     13 O3          8.4640    1.9630   -1.0710 o         1 MOL     -0.744216
     14 O4          7.9430    1.8350   -3.1520 o         1 MOL     -0.744216
     15 H4          8.5060    4.3850   -0.1440 hn        1 MOL      0.254593
     16 H5         10.6300    5.1360   -2.0150 h1        1 MOL     -0.003860
     17 H6         10.2300    3.2000   -3.3290 hc        1 MOL      0.077714
     18 H7          8.8020    4.2740   -3.2410 hc        1 MOL      0.077714
     19 N2         10.5920    2.8590    0.4340 n         1 MOL     -0.375984
     20 C7         11.4150    2.3590    1.5430 c3        1 MOL      0.229189
     21 C8         10.9020    0.9300    1.9310 c         1 MOL      0.389950
     22 O5         11.3230    0.4240    2.9780 o         1 MOL     -0.532839
     23 C9         11.3910    3.4150    2.6570 c3        1 MOL     -0.284715
     24 H8          9.6300    3.0550    0.7020 hn        1 MOL      0.301256
     25 H9         12.4500    2.1540    1.2640 h1        1 MOL      0.039959
     26 H10        11.6340    4.4090    2.2610 hc        1 MOL      0.083535
     27 H11        10.3880    3.4760    3.0660 hc        1 MOL      0.083535
     28 H12        12.0500    3.1520    3.4840 hc        1 MOL      0.083535
     29 N3         10.0480    0.3070    1.1180 n         1 MOL     -0.308192
     30 C10         9.4750   -1.0630    1.3260 c3        1 MOL     -0.029536
     31 C11         8.9840   -1.6010    0.0130 c         1 MOL      0.406005
     32 O6          8.6710   -0.8570   -0.9070 o         1 MOL     -0.532848
     33 C12         8.2810   -0.9460    2.2530 c3        1 MOL      0.036148
     34 C13         7.2620    0.1840    1.8810 c         1 MOL      0.539206
     35 O7          7.0730    1.1850    2.6470 o         1 MOL     -0.642235
     36 O8          6.6700    0.1460    0.7330 o         1 MOL     -0.642235
     37 H13         9.7630    0.8070    0.2960 hn        1 MOL      0.217802
     38 H14        10.1110   -1.7850    1.8340 h1        1 MOL      0.076856
     39 H15         8.6980   -0.9350    3.2570 hc        1 MOL      0.008167
     40 H16         7.7520   -1.9020    2.1960 hc        1 MOL      0.008167
     41 N4          8.8410   -2.9200   -0.1090 n         1 MOL     -0.254003
     42 C14         8.1990   -3.5830   -1.2950 c3        1 MOL     -0.106868
     43 C15         6.6800   -3.3730   -1.3480 c         1 MOL      0.666492
     44 O9          6.2040   -2.2900   -0.9510 o         1 MOL     -0.586057
     45 H17         9.3600   -3.4790    0.5490 hn        1 MOL      0.237980
     46 H18         8.3150   -4.6640   -1.3390 h1        1 MOL      0.050869
     47 H19         8.6280   -3.1800   -2.2150 h1        1 MOL      0.050869
     48 N5          5.9290   -4.3430   -1.8820 n         1 MOL     -0.616552
     49 C16         4.4950   -4.2110   -2.1670 c3        1 MOL      0.436204
     50 C17         3.5490   -4.0380   -1.0020 c         1 MOL      0.307497
     51 O10         3.9300   -4.4070    0.1330 o         1 MOL     -0.442393
     52 C18         4.1640   -5.4790   -2.9800 c3        1 MOL     -0.426384
     53 C19         2.6990   -5.6410   -3.4500 c         1 MOL      0.623083
     54 N6          2.1930   -4.7920   -4.2950 n         1 MOL     -0.771670
     55 O11         1.9240   -6.4390   -2.9580 o         1 MOL     -0.511563
     56 H20         6.4710   -5.1280   -2.2090 hn        1 MOL      0.312645
     57 H21         4.3340   -3.3750   -2.8500 h1        1 MOL     -0.050988
     58 H22         4.3430   -6.3740   -2.3850 hc        1 MOL      0.118942
     59 H23         4.8060   -5.4510   -3.8650 hc        1 MOL      0.118942
     60 H24         2.8120   -4.1290   -4.7420 hn        1 MOL      0.368608
     61 H25         1.2860   -5.0210   -4.6750 hn        1 MOL      0.368608
     62 N7          2.3200   -3.5310   -1.2060 n         1 MOL     -0.267519
     63 C20         1.2990   -3.5160   -0.1240 c3        1 MOL     -0.013918
     64 C21         1.5320   -2.5640    1.0720 c         1 MOL      0.487385
     65 O12         2.4210   -1.7140    0.9590 o         1 MOL     -0.493009
     66 H26         2.1360   -3.0060   -2.0500 hn        1 MOL      0.206754
     67 H27         1.1000   -4.5460    0.1640 h1        1 MOL      0.111358
     68 H28         0.3720   -3.1480   -0.5730 h1        1 MOL      0.111358
     69 N8          0.7790   -2.5660    2.2010 n         1 MOL     -0.496735
     70 C22        -0.1990   -3.6120    2.6500 c3        1 MOL      0.129342
     71 C23        -1.6260   -3.0680    2.7860 c         1 MOL      0.346204
     72 O13        -2.5340   -3.9000    2.8150 o         1 MOL     -0.552802
     73 C24         0.2200   -4.4520    3.8990 c3        1 MOL      0.393686
     74 C25         1.7030   -4.8200    3.9300 c3        1 MOL     -0.400443
     75 O14         0.0890   -3.7400    5.0690 oh        1 MOL     -0.606906
     76 H29         1.1770   -1.9870    2.9210 hn        1 MOL      0.341627
     77 H30        -0.2170   -4.4210    1.9100 h1        1 MOL      0.028562
     78 H31        -0.3250   -5.3920    4.0150 h1        1 MOL     -0.012075
     79 H32        -0.1170   -4.4230    5.7110 ho        1 MOL      0.387995
     80 H33         2.0270   -5.1990    2.9600 hc        1 MOL      0.092315
     81 H34         2.2220   -3.9010    4.1720 hc        1 MOL      0.092315
     82 H35         1.8580   -5.6120    4.6730 hc        1 MOL      0.092315
     83 N9         -1.8370   -1.7780    2.9530 n         1 MOL     -0.170746
     84 C26        -3.1390   -1.0550    2.7390 c3        1 MOL      0.213458
     85 C27        -3.2200   -0.3310    1.3360 c         1 MOL      0.410600
     86 O15        -2.1880    0.3080    1.0540 o         1 MOL     -0.570861
     87 C28        -3.3620   -0.0040    3.8010 c3        1 MOL      0.073491
     88 C29        -2.9930   -0.4650    5.2120 c3        1 MOL     -0.129917
     89 C30        -4.7580    0.6730    3.7870 c3        1 MOL     -0.151623
     90 C31        -3.7390   -1.7510    5.6670 c3        1 MOL     -0.145407
     91 H36        -1.0220   -1.2100    2.7840 hn        1 MOL      0.145788
     92 H37        -3.9740   -1.7460    2.7760 h1        1 MOL      0.024382
     93 H38        -2.6590    0.8130    3.6370 hc        1 MOL     -0.019291
     94 H39        -3.1330    0.3940    5.8700 hc        1 MOL      0.029847
     95 H40        -1.9700   -0.8290    5.2760 hc        1 MOL      0.029847
     96 H41        -4.8340    1.1390    2.8050 hc        1 MOL      0.071258
     97 H42        -5.5360   -0.0750    3.9150 hc        1 MOL      0.071258
     98 H43        -4.8670    1.3570    4.6310 hc        1 MOL      0.071258
     99 H44        -3.5090   -2.6680    5.1370 hc        1 MOL      0.027452
    100 H45        -3.5370   -2.0020    6.7120 hc        1 MOL      0.027452
    101 H46        -4.8040   -1.5450    5.5570 hc        1 MOL      0.027452
    102 N10        -4.3030   -0.4560    0.5440 n         1 MOL     -0.329506
    103 C32        -5.5350   -1.2200    0.6620 c3        1 MOL      0.134580
    104 C33        -6.6260   -0.4960   -0.1260 c         1 MOL      0.510764
    105 O16        -6.4680    0.5480   -0.7760 o         1 MOL     -0.546405
    106 C34        -5.3440   -2.7250    0.2980 c3        1 MOL     -0.166677
    107 C35        -4.5730   -2.9730   -0.9920 c         1 MOL      0.687609
    108 O17        -3.7210   -3.8990   -1.0140 o         1 MOL     -0.713833
    109 O18        -4.7740   -2.2180   -1.9620 o         1 MOL     -0.713833
    110 H47        -4.1610   -0.0640   -0.3710 hn        1 MOL      0.274471
    111 H48        -5.8540   -1.1250    1.7000 h1        1 MOL      0.014903
    112 H49        -6.3150   -3.2280    0.2910 hc        1 MOL      0.008886
    113 H50        -4.8380   -3.1170    1.1850 hc        1 MOL      0.008886
    114 N11        -7.8260   -0.9600    0.1540 n         1 MOL     -0.516707
    115 C36        -9.0850   -0.5910   -0.5360 c3        1 MOL      0.419104
    116 C37       -10.1370    0.0440    0.3940 c         1 MOL      0.161788
    117 O19       -10.1230   -0.4140    1.5360 o         1 MOL     -0.480841
    118 C38        -9.6750   -1.8450   -1.2470 c3        1 MOL     -0.179770
    119 C39       -10.7590   -1.5280   -2.2920 ca        1 MOL      0.059802
    120 C40       -12.0610   -1.2280   -1.8630 ca        1 MOL     -0.125091
    121 C41       -10.4750   -1.6030   -3.6380 ca        1 MOL     -0.125091
    122 C42       -13.1190   -0.9700   -2.7660 ca        1 MOL     -0.158340
    123 C43       -11.5090   -1.4100   -4.5830 ca        1 MOL     -0.158340
    124 C44       -12.8080   -1.0060   -4.0940 ca        1 MOL     -0.109052
    125 H51        -7.8820   -1.5450    0.9750 hn        1 MOL      0.292793
    126 H52        -8.8970    0.1280   -1.3270 h1        1 MOL      0.020256
    127 H53       -10.1350   -2.5110   -0.5170 hc        1 MOL      0.053302
    128 H54        -8.8900   -2.4540   -1.6890 hc        1 MOL      0.053302
    129 H55       -12.3280   -1.3590   -0.8140 ha        1 MOL      0.130771
    130 H56        -9.5410   -1.9940   -4.0090 ha        1 MOL      0.130771
    131 H57       -14.1170   -0.7190   -2.4300 ha        1 MOL      0.118373
    132 H58       -11.2550   -1.3810   -5.6360 ha        1 MOL      0.118373
    133 H59       -13.6900   -0.6910   -4.6390 ha        1 MOL      0.087526
    134 N12       -10.8800    1.0790   -0.0160 n         1 MOL      0.043732
    135 C45       -10.7040    1.8820   -1.1550 c3        1 MOL      0.165789
    136 C46        -9.3220    2.5310   -1.2350 c         1 MOL      0.289199
    137 O20        -8.7930    2.5580   -2.3480 o         1 MOL     -0.549283
    138 C47       -11.7310    3.0660   -0.9690 c3        1 MOL      0.089492
    139 C48       -12.8740    2.3660   -0.3100 c3        1 MOL     -0.010907
    140 C49       -12.1830    1.3210    0.5910 c3        1 MOL     -0.019033
    141 H60       -10.8500    1.3960   -2.1170 h1        1 MOL      0.013424
    142 H61       -11.2390    3.8170   -0.3580 hc        1 MOL     -0.019182
    143 H62       -12.1030    3.4140   -1.9410 hc        1 MOL     -0.019182
    144 H63       -13.5100    3.0280    0.2770 hc        1 MOL     -0.010799
    145 H64       -13.4220    1.9040   -1.1190 hc        1 MOL     -0.010799
    146 H65       -12.0760    1.7160    1.5950 h1        1 MOL      0.019812
    147 H66       -12.7910    0.4140    0.5760 h1        1 MOL      0.019812
    148 N13        -8.8060    3.0980   -0.1700 n         1 MOL     -0.168071
    149 C50        -7.5450    3.9410   -0.1790 c3        1 MOL      0.091103
    150 C51        -7.8500    5.1670   -1.0680 c         1 MOL      0.408876
    151 O21        -8.5890    6.0840   -0.6060 o         1 MOL     -0.591035
    152 C52        -7.1650    4.1740    1.2580 c3        1 MOL     -0.017381
    153 C53        -6.9780    2.8270    2.1210 c3        1 MOL      0.056671
    154 C54        -6.9100    3.1500    3.5920 c         1 MOL      0.685709
    155 O22        -6.5310    4.2820    3.9390 o         1 MOL     -0.723358
    156 O23        -7.3120    2.2740    4.3960 o         1 MOL     -0.723358
    157 H67        -9.3860    2.9590    0.6500 hn        1 MOL      0.219516
    158 H68        -6.7240    3.4700   -0.7180 h1        1 MOL      0.107945
    159 H69        -7.9030    4.7900    1.7630 hc        1 MOL      0.006750
    160 H70        -6.2250    4.7190    1.2300 hc        1 MOL      0.006750
    161 H71        -6.1520    2.2290    1.7360 hc        1 MOL     -0.089896
    162 H72        -7.8260    2.1700    1.9150 hc        1 MOL     -0.089896
    163 N14        -7.3000    5.3880   -2.2700 n         1 MOL     -0.318913
    164 C55        -6.5900    4.5460   -3.2620 c3        1 MOL     -0.196868
    165 H73        -5.5570    4.4030   -2.9430 h1        1 MOL      0.095480
    166 H74        -7.0850    3.5780   -3.3360 h1        1 MOL      0.095480
    167 H75        -6.6050    5.0380   -4.2340 h1        1 MOL      0.095480
    168 H76        -7.6110    6.2260   -2.7360 hn        1 MOL      0.262030
    169 Ca1         6.4140    0.2430   -1.8120 Ca        1 MOL      1.818831
    170 O24         5.5190    2.3880   -0.7700 oh        1 MOL     -0.864732
    171 H77         4.8700    2.5570   -0.0770 ho        1 MOL      0.424425
    172 H78         6.3480    2.6670   -0.4000 ho        1 MOL      0.424425
    173 O25         7.1530   -1.3590   -3.9670 oh        1 MOL     -0.864732
    174 H79         8.0330   -0.9610   -3.9330 ho        1 MOL      0.424425
    175 H80         7.3050   -2.2250   -4.3370 ho        1 MOL      0.424425
    176 O26         4.7790    1.5570   -3.4600 oh        1 MOL     -0.864732
    177 H81         3.9840    1.8540   -3.0310 ho        1 MOL      0.424425
    178 H82         4.8920    2.1730   -4.1910 ho        1 MOL      0.424425
    179 O27         3.8440   -0.0550   -1.3640 oh        1 MOL     -0.864732
    180 H83         3.3820   -0.4870   -2.0830 ho        1 MOL      0.424425
    181 H84         3.1480    0.3090   -0.8230 ho        1 MOL      0.424425
@<TRIPOS>BOND
     1    1    2 1   
     2    1    4 1   
     3    1    5 1   
     4    1    6 1   
     5    2    3 2   
     6    2    7 1   
     7    7    8 1   
     8    7   15 1   
     9    8    9 1   
    10    8   11 1   
    11    8   16 1   
    12    9   10 2   
    13    9   19 1   
    14   11   12 1   
    15   11   17 1   
    16   11   18 1   
    17   12   13 1   
    18   12   14 1   
    19   19   20 1   
    20   19   24 1   
    21   20   21 1   
    22   20   23 1   
    23   20   25 1   
    24   21   22 2   
    25   21   29 1   
    26   23   26 1   
    27   23   27 1   
    28   23   28 1   
    29   29   30 1   
    30   29   37 1   
    31   30   31 1   
    32   30   33 1   
    33   30   38 1   
    34   31   32 2   
    35   31   41 1   
    36   33   34 1   
    37   33   39 1   
    38   33   40 1   
    39   34   35 1   
    40   34   36 1   
    41   41   42 1   
    42   41   45 1   
    43   42   43 1   
    44   42   46 1   
    45   42   47 1   
    46   43   44 2   
    47   43   48 1   
    48   48   49 1   
    49   48   56 1   
    50   49   50 1   
    51   49   52 1   
    52   49   57 1   
    53   50   51 2   
    54   50   62 1   
    55   52   53 1   
    56   52   58 1   
    57   52   59 1   
    58   53   54 1   
    59   53   55 2   
    60   54   60 1   
    61   54   61 1   
    62   62   63 1   
    63   62   66 1   
    64   63   64 1   
    65   63   67 1   
    66   63   68 1   
    67   64   65 2   
    68   64   69 1   
    69   69   70 1   
    70   69   76 1   
    71   70   71 1   
    72   70   73 1   
    73   70   77 1   
    74   71   72 2   
    75   71   83 1   
    76   73   74 1   
    77   73   75 1   
    78   73   78 1   
    79   74   80 1   
    80   74   81 1   
    81   74   82 1   
    82   75   79 1   
    83   83   84 1   
    84   83   91 1   
    85   84   85 1   
    86   84   87 1   
    87   84   92 1   
    88   85   86 2   
    89   85  102 1   
    90   87   88 1   
    91   87   89 1   
    92   87   93 1   
    93   88   90 1   
    94   88   94 1   
    95   88   95 1   
    96   89   96 1   
    97   89   97 1   
    98   89   98 1   
    99   90   99 1   
   100   90  100 1   
   101   90  101 1   
   102  102  103 1   
   103  102  110 1   
   104  103  104 1   
   105  103  106 1   
   106  103  111 1   
   107  104  105 2   
   108  104  114 1   
   109  106  107 1   
   110  106  112 1   
   111  106  113 1   
   112  107  108 1   
   113  107  109 1   
   114  114  115 1   
   115  114  125 1   
   116  115  116 1   
   117  115  118 1   
   118  115  126 1   
   119  116  117 2   
   120  116  134 1   
   121  118  119 1   
   122  118  127 1   
   123  118  128 1   
   124  119  120 ar  
   125  119  121 ar  
   126  120  122 ar  
   127  120  129 1   
   128  121  123 ar  
   129  121  130 1   
   130  122  124 ar  
   131  122  131 1   
   132  123  124 ar  
   133  123  132 1   
   134  124  133 1   
   135  134  135 1   
   136  134  140 1   
   137  135  136 1   
   138  135  138 1   
   139  135  141 1   
   140  136  137 2   
   141  136  148 1   
   142  138  139 1   
   143  138  142 1   
   144  138  143 1   
   145  139  140 1   
   146  139  144 1   
   147  139  145 1   
   148  140  146 1   
   149  140  147 1   
   150  148  149 1   
   151  148  157 1   
   152  149  150 1   
   153  149  152 1   
   154  149  158 1   
   155  150  151 2   
   156  150  163 1   
   157  152  153 1   
   158  152  159 1   
   159  152  160 1   
   160  153  154 1   
   161  153  161 1   
   162  153  162 1   
   163  154  155 1   
   164  154  156 1   
   165  163  164 1   
   166  163  168 1   
   167  164  165 1   
   168  164  166 1   
   169  164  167 1   
   170  170  171 1   
   171  170  172 1   
   172  173  174 1   
   173  173  175 1   
   174  176  177 1   
   175  176  178 1   
   176  179  180 1   
   177  179  181 1   
@<TRIPOS>SUBSTRUCTURE
     1 MOL         1 TEMP              0 ****  ****    0 ROOT
