@<TRIPOS>MOLECULE
MOL
  192   187     1     0     0
SMALL
resp


@<TRIPOS>ATOM
      1 C1          9.3000    1.6290    1.3610 c3        1 MOL     -0.454611
      2 C2          8.2570    0.7220    0.7700 c         1 MOL      0.880233
      3 O1          7.2980    0.3990    1.4020 o         1 MOL     -0.692501
      4 H1         10.1510    1.0350    1.6950 hc        1 MOL      0.110497
      5 H2          9.6310    2.3430    0.6060 hc        1 MOL      0.110497
      6 H3          8.8770    2.1670    2.2090 hc        1 MOL      0.110497
      7 N1          8.5020    0.3140   -0.4790 n         1 MOL     -0.769850
      8 C3          7.4570   -0.1880   -1.4280 c3        1 MOL      0.304279
      9 C4          6.9360   -1.6270   -1.1270 c         1 MOL      0.207381
     10 O2          6.8350   -2.4170   -2.0480 o         1 MOL     -0.411182
     11 C5          7.7720   -0.0260   -2.9250 c3        1 MOL     -0.252564
     12 C6          9.0520   -0.6720   -3.4610 c         1 MOL      0.723756
     13 O3          9.0910   -0.9910   -4.6260 o         1 MOL     -0.638740
     14 O4         10.0710   -0.8960   -2.7840 o         1 MOL     -0.638740
     15 H4          9.3100    0.7270   -0.9230 hn        1 MOL      0.307434
     16 H5          6.6090    0.4670   -1.2090 h1        1 MOL      0.042789
     17 H6          7.6470    1.0270   -3.1590 hc        1 MOL      0.077143
     18 H7          6.9430   -0.4950   -3.4670 hc        1 MOL      0.077143
     19 N2          6.7620   -1.9740    0.1400 n         1 MOL     -0.040778
     20 C7          6.3670   -3.3300    0.6430 c3        1 MOL      0.096482
     21 C8          4.9540   -3.7340    0.3040 c         1 MOL      0.401729
     22 O5          4.7040   -4.8720   -0.0800 o         1 MOL     -0.529394
     23 C9          6.6540   -3.4370    2.1420 c3        1 MOL      0.051244
     24 C10         8.0650   -3.8600    2.5460 c3        1 MOL      0.002941
     25 C11         9.0640   -2.8760    2.1730 c3        1 MOL     -0.092062
     26 C12        10.3910   -3.4870    2.4620 c3        1 MOL     -0.014269
     27 N3         10.6410   -3.5840    3.9270 n4        1 MOL     -0.288932
     28 H8          6.7200   -1.1970    0.7860 hn        1 MOL      0.179880
     29 H9          6.8820   -4.1060    0.0800 h1        1 MOL      0.046054
     30 H10         5.9720   -4.1610    2.5730 hc        1 MOL     -0.014401
     31 H11         6.3300   -2.5770    2.7250 hc        1 MOL     -0.014401
     32 H12         8.2480   -4.8450    2.1140 hc        1 MOL      0.015441
     33 H13         8.0620   -4.0420    3.6170 hc        1 MOL      0.015441
     34 H14         8.8810   -1.8910    2.6050 hc        1 MOL      0.045364
     35 H15         9.0460   -2.7550    1.0940 hc        1 MOL      0.045364
     36 H16        11.1820   -2.8890    2.0110 hx        1 MOL      0.106443
     37 H17        10.4910   -4.4790    2.0100 hx        1 MOL      0.106443
     38 H18        11.6450   -3.6910    3.9940 hn        1 MOL      0.266141
     39 H19        10.4800   -2.6520    4.3000 hn        1 MOL      0.266141
     40 H20        10.1800   -4.2690    4.5020 hn        1 MOL      0.266141
     41 N4          3.9780   -2.8530    0.4010 n         1 MOL     -0.349119
     42 C13         3.9680   -1.5920    1.2030 c3        1 MOL      0.095652
     43 C14         4.0110   -0.3960    0.2100 c         1 MOL      0.097812
     44 O6          3.8870   -0.5550   -1.0000 o         1 MOL     -0.373050
     45 C15         2.8320   -1.5130    2.1740 c3        1 MOL     -0.243485
     46 C16         1.4570   -1.5840    1.5890 c         1 MOL      0.869545
     47 O7          1.1090   -0.8010    0.6670 o         1 MOL     -0.737227
     48 O8          0.7350   -2.4280    1.9870 o         1 MOL     -0.737227
     49 H21         3.1220   -3.1650   -0.0520 hn        1 MOL      0.334052
     50 H22         4.8870   -1.4770    1.7820 h1        1 MOL      0.093377
     51 H23         2.8810   -0.5110    2.5860 hc        1 MOL      0.027830
     52 H24         2.8790   -2.3140    2.9170 hc        1 MOL      0.027830
     53 N5          4.1390    0.8400    0.7740 n         1 MOL     -0.232982
     54 C17         4.2150    2.0940    0.1120 c3        1 MOL     -0.122743
     55 C18         2.8940    2.5710   -0.5370 c         1 MOL      0.686252
     56 O9          1.8590    1.8780   -0.4010 o         1 MOL     -0.612509
     57 H25         4.1570    0.8800    1.7830 hn        1 MOL      0.285439
     58 H26         4.9760    2.0440   -0.6590 h1        1 MOL      0.079574
     59 H27         4.5700    2.8680    0.7870 h1        1 MOL      0.079574
     60 N6          2.9280    3.6530   -1.3120 n         1 MOL     -0.607047
     61 C19         1.9040    4.2840   -2.1890 c3        1 MOL      0.608274
     62 C20         2.1450    5.8060   -2.2490 c         1 MOL      0.244098
     63 O10         3.2960    6.2510   -2.2360 o         1 MOL     -0.483716
     64 C21         1.8370    3.6250   -3.5710 c3        1 MOL     -0.273729
     65 C22         1.3210    2.2120   -3.7480 c         1 MOL      0.652003
     66 O11         0.2300    2.0000   -3.1310 o         1 MOL     -0.653632
     67 O12         1.9250    1.2660   -4.2970 o         1 MOL     -0.653632
     68 H28         3.8230    4.0970   -1.4460 hn        1 MOL      0.261870
     69 H29         0.9040    4.1450   -1.7750 h1        1 MOL     -0.048859
     70 H30         2.8680    3.6620   -3.9180 hc        1 MOL      0.051611
     71 H31         1.2630    4.2450   -4.2600 hc        1 MOL      0.051611
     72 N7          1.1070    6.6610   -2.5270 n         1 MOL     -0.340487
     73 C23        -0.2850    6.3740   -2.8490 c3        1 MOL     -0.052151
     74 C24        -1.1030    6.0780   -1.6240 c         1 MOL      0.624016
     75 O13        -0.6900    6.4720   -0.5040 o         1 MOL     -0.537214
     76 H32         1.4580    7.6060   -2.4800 hn        1 MOL      0.297460
     77 H33        -0.2700    5.5090   -3.5170 h1        1 MOL      0.066125
     78 H34        -0.7060    7.2380   -3.3550 h1        1 MOL      0.066125
     79 N8         -2.1240    5.2670   -1.6770 n         1 MOL     -0.644134
     80 C25        -2.8400    4.8830   -0.4240 c3        1 MOL      0.031214
     81 C26        -1.9600    3.8110    0.3230 c         1 MOL      0.596880
     82 O14        -1.2230    3.0600   -0.3190 o         1 MOL     -0.681764
     83 C27        -4.2660    4.3920   -0.6430 c3        1 MOL      0.314773
     84 C28        -5.1270    4.1290    0.5830 c3        1 MOL     -0.409664
     85 O15        -4.2290    3.1480   -1.3980 oh        1 MOL     -0.594730
     86 H35        -2.5780    5.1070   -2.5650 hn        1 MOL      0.352436
     87 H36        -2.9600    5.7690    0.1870 h1        1 MOL      0.059512
     88 H37        -4.7390    5.1020   -1.3320 h1        1 MOL      0.026908
     89 H38        -3.5910    3.2490   -2.1030 ho        1 MOL      0.373274
     90 H39        -4.6280    3.3420    1.1480 hc        1 MOL      0.115454
     91 H40        -5.2490    5.0380    1.1660 hc        1 MOL      0.115454
     92 H41        -6.1120    3.7640    0.3040 hc        1 MOL      0.115454
     93 N9         -1.9680    3.8910    1.6290 n         1 MOL     -0.066439
     94 C29        -1.2930    3.0740    2.6070 c3        1 MOL     -0.462604
     95 C30        -1.5900    1.5730    2.4890 c         1 MOL      0.592277
     96 O16        -1.1450    0.9440    1.5730 o         1 MOL     -0.571825
     97 C31         0.2230    3.4480    2.6150 c3        1 MOL      0.074904
     98 C32         0.5190    4.9590    2.9280 c3        1 MOL      0.150220
     99 C33         0.9610    2.5690    3.6460 c3        1 MOL     -0.437224
    100 C34         1.6680    5.3990    1.9720 c3        1 MOL     -0.329753
    101 H42        -2.5300    4.6450    1.9900 hn        1 MOL      0.201333
    102 H43        -1.7060    3.4850    3.5250 h1        1 MOL      0.114337
    103 H44         0.5230    3.1570    1.6120 hc        1 MOL      0.119880
    104 H45         0.6790    5.2490    3.9650 hc        1 MOL     -0.013057
    105 H46        -0.3580    5.5140    2.5960 hc        1 MOL     -0.013057
    106 H47         0.4480    2.5850    4.6080 hc        1 MOL      0.116611
    107 H48         1.0170    1.5390    3.2840 hc        1 MOL      0.116611
    108 H49         1.9720    2.9610    3.7200 hc        1 MOL      0.116611
    109 H50         1.7330    6.4700    2.1570 hc        1 MOL      0.080358
    110 H51         2.4950    4.7590    2.2900 hc        1 MOL      0.080358
    111 H52         1.5810    5.2790    0.8940 hc        1 MOL      0.080358
    112 N10        -2.2540    1.0580    3.4950 n         1 MOL     -0.226406
    113 C35        -2.6150   -0.3860    3.5050 c3        1 MOL     -0.055707
    114 C36        -3.8610   -0.7920    2.8410 c         1 MOL      0.553973
    115 O17        -4.0520   -1.9600    2.5340 o         1 MOL     -0.595366
    116 C37        -2.6620   -0.8030    5.0040 c3        1 MOL      0.343784
    117 C38        -3.8630   -0.1240    5.7190 c3        1 MOL     -0.206731
    118 O18        -1.4750   -0.3160    5.6410 oh        1 MOL     -0.641885
    119 H53        -2.6290    1.7380    4.1500 hn        1 MOL      0.256823
    120 H54        -1.8620   -0.9870    2.9980 h1        1 MOL      0.089420
    121 H55        -2.7080   -1.8890    5.0960 h1        1 MOL      0.021167
    122 H56        -0.7140   -0.8510    5.4040 ho        1 MOL      0.409249
    123 H57        -4.7520   -0.4010    5.1690 hc        1 MOL      0.043119
    124 H58        -3.9110   -0.5270    6.7380 hc        1 MOL      0.043119
    125 H59        -3.7620    0.9640    5.7300 hc        1 MOL      0.043119
    126 N11        -4.7370    0.1440    2.4540 n         1 MOL     -0.001997
    127 C39        -6.1170   -0.1460    2.0570 c3        1 MOL     -0.131943
    128 C40        -6.1520   -0.7530    0.7430 c         1 MOL      0.511293
    129 O19        -5.6630   -0.1730   -0.1920 o         1 MOL     -0.476092
    130 C41        -6.9330    1.1310    2.0380 c3        1 MOL      0.387097
    131 C42        -8.3850    0.8900    2.0030 c3        1 MOL     -0.316437
    132 O20        -6.6120    1.9900    3.0650 oh        1 MOL     -0.612190
    133 H60        -4.4620    1.0820    2.7050 hn        1 MOL      0.012292
    134 H61        -6.4710   -0.8570    2.8060 h1        1 MOL      0.035321
    135 H62        -6.6190    1.6050    1.1140 h1        1 MOL      0.044763
    136 H63        -6.8660    1.7120    3.9490 ho        1 MOL      0.395631
    137 H64        -8.6750    0.1670    1.2430 hc        1 MOL      0.072753
    138 H65        -8.7050    0.3970    2.9190 hc        1 MOL      0.072753
    139 H66        -8.9150    1.8390    1.9190 hc        1 MOL      0.072753
    140 N12        -6.8310   -1.9500    0.5780 n         1 MOL     -0.484250
    141 C43        -6.8930   -2.7970   -0.6340 c3        1 MOL      0.019154
    142 C44        -5.5110   -2.7900   -1.3890 c         1 MOL      0.561671
    143 O21        -5.3930   -2.4550   -2.5370 o         1 MOL     -0.542914
    144 C45        -7.9860   -2.1890   -1.5250 c3        1 MOL     -0.243549
    145 C46        -9.3420   -2.3540   -0.8590 c3        1 MOL      0.174213
    146 C47       -10.4470   -1.8990   -1.8330 c3        1 MOL     -0.054235
    147 C48       -11.7360   -1.9670   -1.0380 c3        1 MOL      0.065652
    148 N13       -12.9420   -1.6140   -1.7890 n4        1 MOL     -0.125749
    149 H67        -7.3440   -2.3030    1.3730 hn        1 MOL      0.280826
    150 H68        -7.1610   -3.8270   -0.4040 h1        1 MOL      0.069107
    151 H69        -8.0760   -2.6900   -2.4840 hc        1 MOL      0.109769
    152 H70        -7.7830   -1.1550   -1.8010 hc        1 MOL      0.109769
    153 H71        -9.4320   -1.7920    0.0630 hc        1 MOL     -0.021172
    154 H72        -9.5940   -3.3820   -0.5970 hc        1 MOL     -0.021172
    155 H73       -10.3560   -2.6600   -2.6040 hc        1 MOL      0.032135
    156 H74       -10.1990   -0.9330   -2.2580 hc        1 MOL      0.032135
    157 H75       -11.6150   -1.2810   -0.2080 hx        1 MOL      0.036574
    158 H76       -11.9310   -2.9780   -0.6780 hx        1 MOL      0.036574
    159 H77       -13.7510   -1.8220   -1.2310 hn        1 MOL      0.170228
    160 H78       -12.8560   -0.6550   -2.1010 hn        1 MOL      0.170228
    161 H79       -12.9480   -2.0910   -2.6850 hn        1 MOL      0.170228
    162 N14        -4.4950   -3.3650   -0.7260 n         1 MOL     -0.410342
    163 C49        -3.1260   -3.5050   -1.1880 c3        1 MOL      0.254038
    164 C50        -2.1250   -2.9210   -0.1410 c         1 MOL      0.354721
    165 O22        -1.6730   -1.7870   -0.3450 o         1 MOL     -0.581853
    166 C51        -2.7800   -4.8720   -1.7320 c3        1 MOL     -0.231025
    167 C52        -3.5830   -5.1150   -2.9990 c3        1 MOL     -0.190605
    168 C53        -3.3260   -6.4280   -3.6530 c         1 MOL      0.742659
    169 O23        -2.7460   -6.5390   -4.7280 o         1 MOL     -0.648530
    170 O24        -3.8040   -7.4230   -3.0500 o         1 MOL     -0.648530
    171 H80        -4.7370   -3.5710    0.2290 hn        1 MOL      0.261035
    172 H81        -3.0460   -2.7880   -2.0160 h1        1 MOL      0.102268
    173 H82        -3.1020   -5.6640   -1.0540 hc        1 MOL      0.097565
    174 H83        -1.7390   -4.9830   -2.0230 hc        1 MOL      0.097565
    175 H84        -3.1970   -4.3440   -3.6740 hc        1 MOL      0.039086
    176 H85        -4.6590   -5.0280   -2.8910 hc        1 MOL      0.039086
    177 N15        -1.5710   -3.6520    0.7950 n         1 MOL     -0.377694
    178 C54        -1.9560   -4.9580    1.4620 c3        1 MOL     -0.062719
    179 H86        -1.5740   -4.9710    2.4830 h1        1 MOL      0.056076
    180 H87        -3.0420   -5.0520    1.4790 h1        1 MOL      0.056076
    181 H88        -1.5270   -5.7910    0.9050 h1        1 MOL      0.056076
    182 H89        -0.8360   -3.1480    1.2660 hn        1 MOL      0.396132
    183 Ca1        -0.3730    0.5300   -0.7900 Ca        1 MOL      1.787897
    184 O25        -3.0900    0.7420   -0.6230 oh        1 MOL     -0.913474
    185 H90        -3.4780    1.5720   -0.8920 ho        1 MOL      0.431630
    186 H91        -3.7860    0.0960   -0.7700 ho        1 MOL      0.431630
    187 O26        -1.5210   -0.4310   -3.0540 oh        1 MOL     -0.913474
    188 H92        -2.1980   -0.9500   -3.4820 ho        1 MOL      0.431630
    189 H93        -0.9050   -0.2120   -3.7480 ho        1 MOL      0.431630
    190 O27         1.4330   -0.6070   -2.4650 oh        1 MOL     -0.913474
    191 H94         2.3010   -0.7850   -2.0910 ho        1 MOL      0.431630
    192 H95         1.6080   -0.0050   -3.1860 ho        1 MOL      0.431630
@<TRIPOS>BOND
     1    1    2 1   
     2    1    4 1   
     3    1    5 1   
     4    1    6 1   
     5    2    3 2   
     6    2    7 1   
     7    7    8 1   
     8    7   15 1   
     9    8    9 1   
    10    8   11 1   
    11    8   16 1   
    12    9   10 2   
    13    9   19 1   
    14   11   12 1   
    15   11   17 1   
    16   11   18 1   
    17   12   13 1   
    18   12   14 1   
    19   19   20 1   
    20   19   28 1   
    21   20   21 1   
    22   20   23 1   
    23   20   29 1   
    24   21   22 2   
    25   21   41 1   
    26   23   24 1   
    27   23   30 1   
    28   23   31 1   
    29   24   25 1   
    30   24   32 1   
    31   24   33 1   
    32   25   26 1   
    33   25   34 1   
    34   25   35 1   
    35   26   27 1   
    36   26   36 1   
    37   26   37 1   
    38   27   38 1   
    39   27   39 1   
    40   27   40 1   
    41   41   42 1   
    42   41   49 1   
    43   42   43 1   
    44   42   45 1   
    45   42   50 1   
    46   43   44 2   
    47   43   53 1   
    48   45   46 1   
    49   45   51 1   
    50   45   52 1   
    51   46   47 1   
    52   46   48 1   
    53   53   54 1   
    54   53   57 1   
    55   54   55 1   
    56   54   58 1   
    57   54   59 1   
    58   55   56 2   
    59   55   60 1   
    60   60   61 1   
    61   60   68 1   
    62   61   62 1   
    63   61   64 1   
    64   61   69 1   
    65   62   63 2   
    66   62   72 1   
    67   64   65 1   
    68   64   70 1   
    69   64   71 1   
    70   65   66 1   
    71   65   67 1   
    72   72   73 1   
    73   72   76 1   
    74   73   74 1   
    75   73   77 1   
    76   73   78 1   
    77   74   75 2   
    78   74   79 1   
    79   79   80 1   
    80   79   86 1   
    81   80   81 1   
    82   80   83 1   
    83   80   87 1   
    84   81   82 2   
    85   81   93 1   
    86   83   84 1   
    87   83   85 1   
    88   83   88 1   
    89   84   90 1   
    90   84   91 1   
    91   84   92 1   
    92   85   89 1   
    93   93   94 1   
    94   93  101 1   
    95   94   95 1   
    96   94   97 1   
    97   94  102 1   
    98   95   96 2   
    99   95  112 1   
   100   97   98 1   
   101   97   99 1   
   102   97  103 1   
   103   98  100 1   
   104   98  104 1   
   105   98  105 1   
   106   99  106 1   
   107   99  107 1   
   108   99  108 1   
   109  100  109 1   
   110  100  110 1   
   111  100  111 1   
   112  112  113 1   
   113  112  119 1   
   114  113  114 1   
   115  113  116 1   
   116  113  120 1   
   117  114  115 2   
   118  114  126 1   
   119  116  117 1   
   120  116  118 1   
   121  116  121 1   
   122  117  123 1   
   123  117  124 1   
   124  117  125 1   
   125  118  122 1   
   126  126  127 1   
   127  126  133 1   
   128  127  128 1   
   129  127  130 1   
   130  127  134 1   
   131  128  129 2   
   132  128  140 1   
   133  130  131 1   
   134  130  132 1   
   135  130  135 1   
   136  131  137 1   
   137  131  138 1   
   138  131  139 1   
   139  132  136 1   
   140  140  141 1   
   141  140  149 1   
   142  141  142 1   
   143  141  144 1   
   144  141  150 1   
   145  142  143 2   
   146  142  162 1   
   147  144  145 1   
   148  144  151 1   
   149  144  152 1   
   150  145  146 1   
   151  145  153 1   
   152  145  154 1   
   153  146  147 1   
   154  146  155 1   
   155  146  156 1   
   156  147  148 1   
   157  147  157 1   
   158  147  158 1   
   159  148  159 1   
   160  148  160 1   
   161  148  161 1   
   162  162  163 1   
   163  162  171 1   
   164  163  164 1   
   165  163  166 1   
   166  163  172 1   
   167  164  165 2   
   168  164  177 1   
   169  166  167 1   
   170  166  173 1   
   171  166  174 1   
   172  167  168 1   
   173  167  175 1   
   174  167  176 1   
   175  168  169 1   
   176  168  170 1   
   177  177  178 1   
   178  177  182 1   
   179  178  179 1   
   180  178  180 1   
   181  178  181 1   
   182  184  185 1   
   183  184  186 1   
   184  187  188 1   
   185  187  189 1   
   186  190  191 1   
   187  190  192 1   
@<TRIPOS>SUBSTRUCTURE
     1 MOL         1 TEMP              0 ****  ****    0 ROOT
