@<TRIPOS>MOLECULE
MOL
  192   187     1     0     0
SMALL
resp


@<TRIPOS>ATOM
      1 C1          6.0840    2.8100    5.2920 c3        1 MOL     -0.328838
      2 C2          5.3110    2.2710    4.0520 c         1 MOL      0.748588
      3 O1          4.7400    3.0830    3.3530 o         1 MOL     -0.582101
      4 H1          5.9790    2.1080    6.1190 hc        1 MOL      0.082403
      5 H2          7.1400    2.9200    5.0430 hc        1 MOL      0.082403
      6 H3          5.6760    3.7790    5.5830 hc        1 MOL      0.082403
      7 N1          5.3680    1.0080    3.6790 n         1 MOL     -0.619994
      8 C3          5.0910    0.4720    2.3740 c3        1 MOL      0.498292
      9 C4          3.6030    0.3170    2.0750 c         1 MOL     -0.021225
     10 O2          3.2590   -0.3380    1.1150 o         1 MOL     -0.082366
     11 C5          5.9260   -0.8170    2.0980 c3        1 MOL     -0.206740
     12 C6          7.3650   -0.6140    2.4390 c         1 MOL      0.757999
     13 O3          7.8100   -0.4850    3.5950 o         1 MOL     -0.684999
     14 O4          8.1830   -0.7420    1.5020 o         1 MOL     -0.684999
     15 H4          5.9670    0.4140    4.2420 hn        1 MOL      0.232709
     16 H5          5.3680    1.2280    1.6420 h1        1 MOL      0.001868
     17 H6          5.7590   -1.2460    1.1070 hc        1 MOL     -0.017162
     18 H7          5.5930   -1.6280    2.7460 hc        1 MOL     -0.017162
     19 N2          2.6830    0.8960    2.8830 n         1 MOL     -0.221862
     20 C7          1.2610    0.5470    2.8140 c3        1 MOL      0.032522
     21 C8          0.4520    1.8770    2.4950 c         1 MOL      0.482758
     22 O5          0.5740    2.7530    3.3510 o         1 MOL     -0.543769
     23 C9          0.8310   -0.1190    4.1280 c3        1 MOL     -0.372261
     24 C10         1.3510   -1.5670    4.2990 c3        1 MOL      0.136226
     25 C11         0.9330   -2.1680    5.6550 c3        1 MOL     -0.068800
     26 C12         1.1160   -3.6420    5.6110 c3        1 MOL      0.156342
     27 N3          0.8440   -4.2850    6.9520 n4        1 MOL     -0.559154
     28 H8          3.0300    1.5590    3.5520 hn        1 MOL      0.235959
     29 H9          1.1040   -0.1850    2.0150 h1        1 MOL     -0.018040
     30 H10        -0.2570   -0.1410    4.2300 hc        1 MOL      0.109783
     31 H11         1.2630    0.4390    4.9580 hc        1 MOL      0.109783
     32 H12         2.4170   -1.6310    4.0980 hc        1 MOL      0.025593
     33 H13         0.8820   -2.1670    3.5170 hc        1 MOL      0.025593
     34 H14        -0.1220   -1.9120    5.7950 hc        1 MOL      0.032203
     35 H15         1.5990   -1.7300    6.3930 hc        1 MOL      0.032203
     36 H16         2.1790   -3.8010    5.4310 hx        1 MOL      0.057357
     37 H17         0.5200   -4.0900    4.8290 hx        1 MOL      0.057357
     38 H18        -0.1180   -4.0240    7.0670 hn        1 MOL      0.373007
     39 H19         0.9710   -5.2860    6.8880 hn        1 MOL      0.373007
     40 H20         1.4340   -3.8260    7.6390 hn        1 MOL      0.373007
     41 N4         -0.2990    2.1280    1.4360 n         1 MOL      0.027763
     42 C13        -0.6310    1.1230    0.4650 c3        1 MOL     -0.024677
     43 C14        -1.1470   -0.2230    0.9850 c         1 MOL      0.756209
     44 O6         -0.5820   -1.2970    0.7260 o         1 MOL     -0.554827
     45 C15         0.4040    1.0190   -0.7010 c3        1 MOL     -0.392496
     46 C16         0.3780    2.3180   -1.5910 c         1 MOL      0.689706
     47 O7          1.1000    2.2690   -2.6010 o         1 MOL     -0.600276
     48 O8         -0.4330    3.2180   -1.2630 o         1 MOL     -0.600276
     49 H21        -0.5650    3.0860    1.2580 hn        1 MOL      0.004317
     50 H22        -1.4810    1.5330   -0.0730 h1        1 MOL     -0.078476
     51 H23         0.1690    0.2220   -1.4030 hc        1 MOL      0.119774
     52 H24         1.4080    0.7910   -0.3610 hc        1 MOL      0.119774
     53 N5         -2.1310   -0.3070    1.8740 n         1 MOL     -0.583720
     54 C17        -3.1410    0.6940    2.1970 c3        1 MOL      0.269876
     55 C18        -4.2860    0.1640    2.9840 c         1 MOL      0.486187
     56 O9         -4.3030   -0.7700    3.7630 o         1 MOL     -0.557172
     57 H25        -2.3320   -1.2610    2.1590 hn        1 MOL      0.256393
     58 H26        -3.4830    1.0770    1.2370 h1        1 MOL      0.000638
     59 H27        -2.6720    1.5290    2.7090 h1        1 MOL      0.000638
     60 N6         -5.4830    0.6890    2.7960 n         1 MOL     -0.366287
     61 C19        -5.8890    1.9210    2.0710 c3        1 MOL      0.000953
     62 C20        -6.8390    1.5920    0.8330 c         1 MOL      0.434869
     63 O10        -7.4000    0.5020    0.8650 o         1 MOL     -0.463327
     64 C21        -6.5880    2.8990    3.1090 c3        1 MOL     -0.029571
     65 C22        -7.5640    2.3160    4.1590 c         1 MOL      0.658895
     66 O11        -8.3010    1.3310    3.8680 o         1 MOL     -0.657683
     67 O12        -7.4870    2.8110    5.3080 o         1 MOL     -0.657683
     68 H28        -6.2650    0.2350    3.2570 hn        1 MOL      0.316743
     69 H29        -5.0300    2.4160    1.6370 h1        1 MOL     -0.028945
     70 H30        -7.1140    3.6780    2.5650 hc        1 MOL     -0.028795
     71 H31        -5.7830    3.4740    3.5660 hc        1 MOL     -0.028795
     72 N7         -6.9660    2.4590   -0.1190 n         1 MOL     -0.139204
     73 C23        -7.8010    2.2330   -1.2610 c3        1 MOL     -0.315213
     74 C24        -7.2820    1.0560   -2.1410 c         1 MOL      0.639217
     75 O13        -8.0690    0.3670   -2.8350 o         1 MOL     -0.567866
     76 H32        -6.3250    3.2480   -0.1160 hn        1 MOL      0.167119
     77 H33        -7.7490    3.1120   -1.9000 h1        1 MOL      0.137094
     78 H34        -8.8080    2.1020   -0.8750 h1        1 MOL      0.137094
     79 N8         -6.0070    0.7950   -2.0820 n         1 MOL     -0.482229
     80 C25        -5.4100   -0.4620   -2.5590 c3        1 MOL     -0.031805
     81 C26        -4.4780   -0.9650   -1.4840 c         1 MOL      0.394558
     82 O14        -3.5450   -0.2280   -1.0880 o         1 MOL     -0.475583
     83 C27        -4.6780   -0.2300   -3.9770 c3        1 MOL      0.333588
     84 C28        -5.6690   -0.1350   -5.1730 c3        1 MOL     -0.292887
     85 O15        -3.9150   -1.3710   -4.2900 oh        1 MOL     -0.551567
     86 H35        -5.4300    1.3980   -1.5090 hn        1 MOL      0.241989
     87 H36        -6.2010   -1.1630   -2.8160 h1        1 MOL      0.150629
     88 H37        -4.0270    0.6320   -3.8590 h1        1 MOL     -0.011474
     89 H38        -3.0430   -1.0730   -4.5630 ho        1 MOL      0.383420
     90 H39        -6.4720   -0.8470   -5.0380 hc        1 MOL      0.077062
     91 H40        -5.9980    0.8960   -5.2160 hc        1 MOL      0.077062
     92 H41        -5.0950   -0.3620   -6.0760 hc        1 MOL      0.077062
     93 N9         -4.7080   -2.1890   -1.0470 n         1 MOL     -0.227590
     94 C29        -4.0340   -2.8680    0.0730 c3        1 MOL     -0.303996
     95 C30        -2.6430   -3.5360   -0.2320 c         1 MOL      0.379647
     96 O16        -2.0230   -4.0900    0.6760 o         1 MOL     -0.504181
     97 C31        -4.9780   -3.7900    0.8990 c3        1 MOL      0.254582
     98 C32        -5.4160   -4.9390    0.0080 c3        1 MOL      0.128536
     99 C33        -6.1620   -3.0200    1.5240 c3        1 MOL     -0.122148
    100 C34        -5.9070   -6.1910    0.7440 c3        1 MOL     -0.383769
    101 H42        -5.4210   -2.6650   -1.5720 hn        1 MOL      0.241750
    102 H43        -3.6690   -2.1500    0.8050 h1        1 MOL      0.187852
    103 H44        -4.4140   -4.1810    1.7440 hc        1 MOL     -0.000020
    104 H45        -4.5340   -5.3070   -0.5170 hc        1 MOL     -0.001116
    105 H46        -6.0950   -4.6530   -0.7960 hc        1 MOL     -0.001116
    106 H47        -5.8770   -2.1550    2.1120 hc        1 MOL      0.027594
    107 H48        -6.8810   -2.7650    0.7360 hc        1 MOL      0.027594
    108 H49        -6.6550   -3.7000    2.2230 hc        1 MOL      0.027594
    109 H50        -5.7990   -7.0170    0.0430 hc        1 MOL      0.089004
    110 H51        -5.0950   -6.4270    1.4250 hc        1 MOL      0.089004
    111 H52        -6.8570   -6.1940    1.2850 hc        1 MOL      0.089004
    112 N10        -2.2800   -3.5850   -1.5120 n         1 MOL     -0.104019
    113 C35        -1.3080   -4.6440   -2.0080 c3        1 MOL     -0.342134
    114 C36         0.1280   -4.4650   -1.5650 c         1 MOL      0.422385
    115 O17         0.9130   -5.3500   -1.9610 o         1 MOL     -0.576121
    116 C37        -1.3890   -4.8710   -3.5810 c3        1 MOL      0.352119
    117 C38        -0.9830   -3.5200   -4.2680 c3        1 MOL     -0.179076
    118 O18        -2.7170   -5.0020   -3.9250 oh        1 MOL     -0.573007
    119 H53        -2.9060   -3.1520   -2.1610 hn        1 MOL      0.147897
    120 H54        -1.5820   -5.5910   -1.5340 h1        1 MOL      0.159145
    121 H55        -0.7810   -5.7130   -3.9300 h1        1 MOL      0.038238
    122 H56        -2.9210   -5.8850   -3.5920 ho        1 MOL      0.360495
    123 H57         0.0950   -3.3860   -4.4040 hc        1 MOL      0.053845
    124 H58        -1.4950   -3.5060   -5.2300 hc        1 MOL      0.053845
    125 H59        -1.3390   -2.6550   -3.7080 hc        1 MOL      0.053845
    126 N11         0.4720   -3.4420   -0.8180 n         1 MOL     -0.036903
    127 C39         1.7710   -2.9360   -0.4240 c3        1 MOL      0.069713
    128 C40         2.4880   -2.3380   -1.6620 c         1 MOL      0.285171
    129 O19         2.2150   -2.6170   -2.8250 o         1 MOL     -0.473435
    130 C41         2.5790   -3.9760    0.4050 c3        1 MOL      0.404745
    131 C42         1.9400   -4.3580    1.7610 c3        1 MOL     -0.403708
    132 O20         3.7360   -3.3020    0.7960 oh        1 MOL     -0.764647
    133 H60        -0.3070   -2.8430   -0.5750 hn        1 MOL      0.074254
    134 H61         1.6870   -2.0710    0.2350 h1        1 MOL      0.100666
    135 H62         2.7760   -4.8210   -0.2520 h1        1 MOL     -0.000202
    136 H63         4.0910   -3.6890    1.6120 ho        1 MOL      0.452331
    137 H64         2.1170   -5.3850    2.0740 hc        1 MOL      0.076648
    138 H65         2.2930   -3.7070    2.5560 hc        1 MOL      0.076648
    139 H66         0.8650   -4.1960    1.6660 hc        1 MOL      0.076648
    140 N12         3.4930   -1.4320   -1.4690 n         1 MOL     -0.109546
    141 C43         4.4070   -0.7850   -2.4470 c3        1 MOL     -0.250303
    142 C44         4.7780    0.7040   -2.2830 c         1 MOL      0.766534
    143 O21         5.4000    1.2380   -3.2000 o         1 MOL     -0.601651
    144 C45         5.6660   -1.6060   -2.6480 c3        1 MOL     -0.079626
    145 C46         5.4960   -3.0650   -3.0950 c3        1 MOL      0.039982
    146 C47         6.8030   -3.6590   -3.5730 c3        1 MOL      0.019020
    147 C48         6.8370   -5.1290   -3.7640 c3        1 MOL      0.113735
    148 N13         8.0380   -5.7050   -3.1000 n4        1 MOL     -0.407344
    149 H67         3.6210   -1.2420   -0.4930 hn        1 MOL      0.161537
    150 H68         3.8740   -0.7880   -3.3960 h1        1 MOL      0.117090
    151 H69         6.3030   -1.6050   -1.7530 hc        1 MOL      0.062764
    152 H70         6.3440   -1.1240   -3.3550 hc        1 MOL      0.062764
    153 H71         4.7970   -3.2400   -3.9210 hc        1 MOL      0.029243
    154 H72         5.1480   -3.6970   -2.2770 hc        1 MOL      0.029243
    155 H73         7.6510   -3.3450   -2.9620 hc        1 MOL      0.009992
    156 H74         7.0640   -3.2240   -4.5310 hc        1 MOL      0.009992
    157 H75         6.7920   -5.4830   -4.7960 hx        1 MOL      0.054812
    158 H76         5.9680   -5.6270   -3.3330 hx        1 MOL      0.054812
    159 H77         8.8920   -5.4180   -3.5460 hn        1 MOL      0.330030
    160 H78         7.9800   -5.4820   -2.1110 hn        1 MOL      0.330030
    161 H79         8.1150   -6.7080   -3.2100 hn        1 MOL      0.330030
    162 N14         4.2670    1.3700   -1.2340 n         1 MOL     -0.333169
    163 C49         4.2920    2.8070   -1.1340 c3        1 MOL     -0.437284
    164 C50         5.6740    3.4220   -0.9240 c         1 MOL      0.473761
    165 O22         6.4640    2.9180   -0.1510 o         1 MOL     -0.478569
    166 C51         3.2680    3.2690   -0.0650 c3        1 MOL      0.990084
    167 C52         3.0590    4.7880   -0.0130 c3        1 MOL     -0.926438
    168 C53         2.4670    5.4300   -1.2900 c         1 MOL      0.796998
    169 O23         3.2160    5.6480   -2.3070 o         1 MOL     -0.731243
    170 O24         1.2670    5.7230   -1.3770 o         1 MOL     -0.731243
    171 H80         3.8130    0.8150   -0.5220 hn        1 MOL      0.061308
    172 H81         3.9600    3.1410   -2.1160 h1        1 MOL      0.176097
    173 H82         3.5940    2.9430    0.9270 hc        1 MOL     -0.180216
    174 H83         2.3070    2.7680   -0.1630 hc        1 MOL     -0.180216
    175 H84         4.0430    5.2640    0.0990 hc        1 MOL      0.198119
    176 H85         2.4480    5.0990    0.8350 hc        1 MOL      0.198119
    177 N15         5.9750    4.4360   -1.7490 n         1 MOL     -0.261902
    178 C54         7.2480    5.1020   -1.8890 c3        1 MOL     -0.115322
    179 H86         7.3240    5.5310   -2.8880 h1        1 MOL      0.066447
    180 H87         7.3270    5.8960   -1.1470 h1        1 MOL      0.066447
    181 H88         8.0530    4.3830   -1.7400 h1        1 MOL      0.066447
    182 H89         5.1890    4.5850   -2.3680 hn        1 MOL      0.328930
    183 Ca1        -1.2860    5.6030   -1.5190 Ca        1 MOL      1.582279
    184 O25        -0.3110    5.6990   -4.0720 oh        1 MOL     -0.860586
    185 H90         0.3500    5.1750   -4.5200 ho        1 MOL      0.427981
    186 H91        -0.3290    6.5240   -4.5480 ho        1 MOL      0.427981
    187 O26        -2.6620    4.0550   -3.1810 oh        1 MOL     -0.860586
    188 H92        -2.2150    3.5710   -3.8750 ho        1 MOL      0.427981
    189 H93        -3.5920    3.9800   -3.3940 ho        1 MOL      0.427981
    190 O27        -3.2090    7.1830   -2.7090 oh        1 MOL     -0.860586
    191 H94        -4.1080    6.9010   -2.5680 ho        1 MOL      0.427981
    192 H95        -3.2760    8.1040   -2.9380 ho        1 MOL      0.427981
@<TRIPOS>BOND
     1    1    2 1   
     2    1    4 1   
     3    1    5 1   
     4    1    6 1   
     5    2    3 2   
     6    2    7 1   
     7    7    8 1   
     8    7   15 1   
     9    8    9 1   
    10    8   11 1   
    11    8   16 1   
    12    9   10 2   
    13    9   19 1   
    14   11   12 1   
    15   11   17 1   
    16   11   18 1   
    17   12   13 1   
    18   12   14 1   
    19   19   20 1   
    20   19   28 1   
    21   20   21 1   
    22   20   23 1   
    23   20   29 1   
    24   21   22 2   
    25   21   41 1   
    26   23   24 1   
    27   23   30 1   
    28   23   31 1   
    29   24   25 1   
    30   24   32 1   
    31   24   33 1   
    32   25   26 1   
    33   25   34 1   
    34   25   35 1   
    35   26   27 1   
    36   26   36 1   
    37   26   37 1   
    38   27   38 1   
    39   27   39 1   
    40   27   40 1   
    41   41   42 1   
    42   41   49 1   
    43   42   43 1   
    44   42   45 1   
    45   42   50 1   
    46   43   44 2   
    47   43   53 1   
    48   45   46 1   
    49   45   51 1   
    50   45   52 1   
    51   46   47 1   
    52   46   48 1   
    53   53   54 1   
    54   53   57 1   
    55   54   55 1   
    56   54   58 1   
    57   54   59 1   
    58   55   56 2   
    59   55   60 1   
    60   60   61 1   
    61   60   68 1   
    62   61   62 1   
    63   61   64 1   
    64   61   69 1   
    65   62   63 2   
    66   62   72 1   
    67   64   65 1   
    68   64   70 1   
    69   64   71 1   
    70   65   66 1   
    71   65   67 1   
    72   72   73 1   
    73   72   76 1   
    74   73   74 1   
    75   73   77 1   
    76   73   78 1   
    77   74   75 2   
    78   74   79 1   
    79   79   80 1   
    80   79   86 1   
    81   80   81 1   
    82   80   83 1   
    83   80   87 1   
    84   81   82 2   
    85   81   93 1   
    86   83   84 1   
    87   83   85 1   
    88   83   88 1   
    89   84   90 1   
    90   84   91 1   
    91   84   92 1   
    92   85   89 1   
    93   93   94 1   
    94   93  101 1   
    95   94   95 1   
    96   94   97 1   
    97   94  102 1   
    98   95   96 2   
    99   95  112 1   
   100   97   98 1   
   101   97   99 1   
   102   97  103 1   
   103   98  100 1   
   104   98  104 1   
   105   98  105 1   
   106   99  106 1   
   107   99  107 1   
   108   99  108 1   
   109  100  109 1   
   110  100  110 1   
   111  100  111 1   
   112  112  113 1   
   113  112  119 1   
   114  113  114 1   
   115  113  116 1   
   116  113  120 1   
   117  114  115 2   
   118  114  126 1   
   119  116  117 1   
   120  116  118 1   
   121  116  121 1   
   122  117  123 1   
   123  117  124 1   
   124  117  125 1   
   125  118  122 1   
   126  126  127 1   
   127  126  133 1   
   128  127  128 1   
   129  127  130 1   
   130  127  134 1   
   131  128  129 2   
   132  128  140 1   
   133  130  131 1   
   134  130  132 1   
   135  130  135 1   
   136  131  137 1   
   137  131  138 1   
   138  131  139 1   
   139  132  136 1   
   140  140  141 1   
   141  140  149 1   
   142  141  142 1   
   143  141  144 1   
   144  141  150 1   
   145  142  143 2   
   146  142  162 1   
   147  144  145 1   
   148  144  151 1   
   149  144  152 1   
   150  145  146 1   
   151  145  153 1   
   152  145  154 1   
   153  146  147 1   
   154  146  155 1   
   155  146  156 1   
   156  147  148 1   
   157  147  157 1   
   158  147  158 1   
   159  148  159 1   
   160  148  160 1   
   161  148  161 1   
   162  162  163 1   
   163  162  171 1   
   164  163  164 1   
   165  163  166 1   
   166  163  172 1   
   167  164  165 2   
   168  164  177 1   
   169  166  167 1   
   170  166  173 1   
   171  166  174 1   
   172  167  168 1   
   173  167  175 1   
   174  167  176 1   
   175  168  169 1   
   176  168  170 1   
   177  177  178 1   
   178  177  182 1   
   179  178  179 1   
   180  178  180 1   
   181  178  181 1   
   182  184  185 1   
   183  184  186 1   
   184  187  188 1   
   185  187  189 1   
   186  190  191 1   
   187  190  192 1   
@<TRIPOS>SUBSTRUCTURE
     1 MOL         1 TEMP              0 ****  ****    0 ROOT
