@<TRIPOS>MOLECULE
MOL
  189   185     1     0     0
SMALL
resp


@<TRIPOS>ATOM
      1 C1          3.8950    3.7700   -3.8030 c3        1 MOL     -0.453184
      2 C2          4.6410    2.9690   -2.7290 c         1 MOL      0.798819
      3 O1          4.1220    2.7370   -1.6230 o         1 MOL     -0.587297
      4 H1          3.3480    3.0850   -4.4510 hc        1 MOL      0.109735
      5 H2          3.1940    4.4540   -3.3250 hc        1 MOL      0.109735
      6 H3          4.6100    4.3380   -4.3970 hc        1 MOL      0.109735
      7 N1          5.8420    2.5040   -3.1060 n         1 MOL     -0.719126
      8 C3          6.7300    1.5510   -2.3950 c3        1 MOL      0.259256
      9 C4          5.9300    0.3610   -1.8760 c         1 MOL      0.011718
     10 O2          5.6280    0.2540   -0.6810 o         1 MOL     -0.313203
     11 C5          7.5940    2.3180   -1.3690 c3        1 MOL     -0.189972
     12 C6          7.1760    3.4150   -0.5130 c         1 MOL      0.795950
     13 O3          6.4780    3.1300    0.4830 o         1 MOL     -0.754681
     14 O4          7.5930    4.5900   -0.7360 o         1 MOL     -0.754681
     15 H4          6.1130    2.7210   -4.0480 hn        1 MOL      0.330112
     16 H5          7.3240    1.1570   -3.2180 h1        1 MOL      0.063397
     17 H6          8.5400    2.5090   -1.8660 hc        1 MOL      0.045335
     18 H7          7.9820    1.5850   -0.6670 hc        1 MOL      0.045335
     19 N2          5.5290   -0.4930   -2.7800 n         1 MOL     -0.158694
     20 C7          4.8860   -1.8510   -2.7360 c3        1 MOL     -0.002288
     21 C8          5.7100   -2.9520   -2.0210 c         1 MOL      0.425737
     22 O5          5.9710   -4.0520   -2.5120 o         1 MOL     -0.549855
     23 C9          3.3230   -1.9870   -2.3080 c3        1 MOL     -0.041824
     24 C10         2.7210   -3.3060   -2.7850 c3        1 MOL     -0.120181
     25 C11         2.4890   -0.8110   -2.8460 c3        1 MOL     -0.189433
     26 C12         2.3320   -3.3450   -4.2770 c3        1 MOL     -0.106054
     27 H8          5.6840   -0.1830   -3.7320 hn        1 MOL      0.223472
     28 H9          5.0750   -2.2370   -3.7390 h1        1 MOL      0.056601
     29 H10         3.1890   -1.8960   -1.2260 hc        1 MOL      0.019197
     30 H11         1.7900   -3.5420   -2.2620 hc        1 MOL      0.067789
     31 H12         3.4030   -4.1020   -2.5110 hc        1 MOL      0.067789
     32 H13         1.4030   -0.8470   -2.6990 hc        1 MOL      0.069288
     33 H14         2.8520    0.0570   -2.2970 hc        1 MOL      0.069288
     34 H15         2.6650   -0.5410   -3.8900 hc        1 MOL      0.069288
     35 H16         1.8000   -4.2560   -4.5620 hc        1 MOL      0.020997
     36 H17         1.7540   -2.4510   -4.4930 hc        1 MOL      0.020997
     37 H18         3.1530   -3.3020   -4.9910 hc        1 MOL      0.020997
     38 N3          6.0930   -2.5980   -0.7770 n         1 MOL     -0.087228
     39 C13         7.1050   -3.2260   -0.0410 c3        1 MOL      0.047836
     40 C14         6.6810   -4.5320    0.6880 c         1 MOL      0.654836
     41 O6          7.4710   -5.4210    0.6980 o         1 MOL     -0.598994
     42 C15         7.7020   -2.2860    0.9610 c3        1 MOL     -0.106528
     43 C16         8.2640   -1.0150    0.3120 c         1 MOL      0.616416
     44 O7          8.6850   -0.9790   -0.8990 o         1 MOL     -0.660399
     45 O8          8.2970    0.0590    1.0510 o         1 MOL     -0.660399
     46 H19         5.8050   -1.7240   -0.3700 hn        1 MOL      0.109316
     47 H20         7.9420   -3.4660   -0.7010 h1        1 MOL      0.026792
     48 H21         8.5380   -2.8000    1.4420 hc        1 MOL      0.037629
     49 H22         6.9870   -2.0910    1.7540 hc        1 MOL      0.037629
     50 N4          5.5120   -4.6010    1.3150 n         1 MOL     -0.676729
     51 C17         4.3990   -3.7230    1.6790 c3        1 MOL      0.282418
     52 C18         4.5750   -3.0470    3.0280 c         1 MOL      0.297829
     53 O9          5.5140   -3.3450    3.7850 o         1 MOL     -0.519352
     54 H23         5.5210   -5.4080    1.9100 hn        1 MOL      0.308748
     55 H24         3.4200   -4.1800    1.5650 h1        1 MOL      0.010908
     56 H25         4.3970   -2.8970    0.9610 h1        1 MOL      0.010908
     57 N5          3.7460   -2.0580    3.4390 n         1 MOL     -0.224827
     58 C19         2.3750   -1.7150    3.0040 c3        1 MOL     -0.075119
     59 C20         2.4330   -1.0770    1.6070 c         1 MOL      0.132174
     60 O10         3.5220   -0.6510    1.1680 o         1 MOL     -0.350242
     61 C21         1.8890   -0.6510    4.0280 c3        1 MOL     -0.268359
     62 C22         2.6350    0.6920    4.0420 c         1 MOL      0.780571
     63 O11         2.7230    1.3750    2.9930 o         1 MOL     -0.683362
     64 O12         3.1220    1.1090    5.0810 o         1 MOL     -0.683362
     65 H26         3.9110   -1.6860    4.3650 hn        1 MOL      0.256600
     66 H27         1.8450   -2.6690    2.9510 h1        1 MOL      0.082261
     67 H28         1.8500   -1.1240    5.0060 hc        1 MOL      0.067255
     68 H29         0.8190   -0.5170    3.9060 hc        1 MOL      0.067255
     69 N6          1.3200   -0.7650    1.0100 n         1 MOL      0.032999
     70 C23        -0.0340   -1.1390    1.3120 c3        1 MOL     -0.103880
     71 C24        -0.4380   -2.5680    0.9110 c         1 MOL      0.587530
     72 O13         0.3940   -3.3430    0.4000 o         1 MOL     -0.497307
     73 H30         1.4850   -0.1610    0.2240 hn        1 MOL      0.111478
     74 H31        -0.6340   -0.5500    0.6240 h1        1 MOL      0.080010
     75 H32        -0.3670   -0.8770    2.3220 h1        1 MOL      0.080010
     76 N7         -1.6380   -2.9880    1.1970 n         1 MOL     -0.549060
     77 C25        -2.1460   -4.3590    0.8880 c3        1 MOL      0.194301
     78 C26        -2.8160   -4.5030   -0.4760 c         1 MOL      0.300383
     79 O14        -2.7600   -5.5330   -1.1860 o         1 MOL     -0.518044
     80 C27        -3.0490   -4.8200    2.0960 c3        1 MOL     -0.156315
     81 C28        -4.1400   -4.0250    2.6680 c3        1 MOL     -0.169435
     82 C29        -5.2170   -3.8900    1.5980 c         1 MOL      0.468717
     83 N8         -5.8130   -4.9310    1.2370 n         1 MOL     -0.679058
     84 O15        -5.5820   -2.8740    1.0340 o         1 MOL     -0.503986
     85 H33        -2.3080   -2.3170    1.5400 hn        1 MOL      0.328190
     86 H34        -1.3300   -5.0750    0.7980 h1        1 MOL      0.083333
     87 H35        -2.3170   -5.0620    2.8620 hc        1 MOL      0.058535
     88 H36        -3.4360   -5.7760    1.7480 hc        1 MOL      0.058535
     89 H37        -3.8280   -3.0410    3.0080 hc        1 MOL      0.096254
     90 H38        -4.4340   -4.5760    3.5690 hc        1 MOL      0.096254
     91 H39        -5.7440   -5.8940    1.5200 hn        1 MOL      0.353316
     92 H40        -6.3480   -4.7090    0.4140 hn        1 MOL      0.353316
     93 N9         -3.3880   -3.4350   -1.0470 n         1 MOL     -0.066313
     94 C30        -3.6870   -3.1820   -2.4390 c3        1 MOL     -0.227135
     95 C31        -5.0710   -2.6040   -2.7790 c         1 MOL      0.488644
     96 O16        -5.5240   -2.6180   -3.9690 o         1 MOL     -0.567828
     97 C32        -2.6490   -2.3090   -3.1280 c3        1 MOL      0.082040
     98 C33        -1.2720   -3.0150   -2.9960 c3        1 MOL     -0.087038
     99 C34        -2.2680   -0.8930   -2.5930 c3        1 MOL     -0.087038
    100 H41        -3.2550   -2.6330   -0.4590 hn        1 MOL      0.114103
    101 H42        -3.7700   -4.1990   -2.8210 h1        1 MOL      0.150315
    102 H43        -2.9560   -2.2720   -4.1820 hc        1 MOL      0.026631
    103 H44        -0.5770   -2.4860   -3.6450 hc        1 MOL      0.025657
    104 H45        -0.9430   -3.0980   -1.9590 hc        1 MOL      0.025657
    105 H46        -1.3690   -3.9700   -3.5120 hc        1 MOL      0.025657
    106 H47        -1.8560   -1.0280   -1.5940 hc        1 MOL      0.025657
    107 H48        -1.4870   -0.4450   -3.2100 hc        1 MOL      0.025657
    108 H49        -3.1740   -0.2800   -2.5720 hc        1 MOL      0.025657
    109 N10        -5.7240   -2.0430   -1.7680 n         1 MOL     -0.248304
    110 C35        -7.0630   -1.3910   -2.0500 c3        1 MOL      0.029581
    111 C36        -7.1850    0.0460   -1.6250 c         1 MOL      0.566883
    112 O17        -8.1460    0.5880   -2.1300 o         1 MOL     -0.557256
    113 C37        -8.2240   -2.2220   -1.3900 c3        1 MOL     -0.017250
    114 C38        -8.1910   -3.6930   -1.7430 c         1 MOL      0.527109
    115 N11        -8.7580   -4.1040   -2.8580 n         1 MOL     -0.696901
    116 O18        -7.5710   -4.4750   -0.9520 o         1 MOL     -0.558487
    117 H50        -5.2910   -2.1570   -0.8570 hn        1 MOL      0.260385
    118 H51        -7.2780   -1.4360   -3.1150 h1        1 MOL      0.081692
    119 H52        -9.1900   -1.7980   -1.6870 hc        1 MOL      0.001239
    120 H53        -8.1390   -2.0980   -0.3110 hc        1 MOL      0.001239
    121 H54        -9.2310   -3.5000   -3.5050 hn        1 MOL      0.350742
    122 H55        -8.8680   -5.0990   -3.0260 hn        1 MOL      0.350742
    123 N12        -6.2030    0.7340   -0.9770 n         1 MOL     -0.512744
    124 C39        -6.3600    2.0940   -0.4570 c3        1 MOL      0.232939
    125 C40        -5.0060    2.7680   -0.1740 c         1 MOL      0.388117
    126 O19        -3.9660    2.1010   -0.0600 o         1 MOL     -0.403356
    127 C41        -7.2770    1.9940    0.8180 c3        1 MOL     -0.055631
    128 C42        -6.8600    0.9790    1.8330 ca        1 MOL      0.128763
    129 C43        -7.6380   -0.1950    1.9560 ca        1 MOL     -0.310205
    130 C44        -5.6710    1.0920    2.6030 ca        1 MOL     -0.310205
    131 C45        -7.2230   -1.1500    2.9220 ca        1 MOL     -0.105265
    132 C46        -5.2650    0.1710    3.5590 ca        1 MOL     -0.105265
    133 C47        -6.0640   -0.9630    3.7730 ca        1 MOL      0.158622
    134 O20        -5.5870   -1.8770    4.5930 oh        1 MOL     -0.386923
    135 H56        -5.4600    0.1340   -0.6310 hn        1 MOL      0.237510
    136 H57        -6.9310    2.6380   -1.2060 h1        1 MOL      0.017046
    137 H58        -8.2960    1.8070    0.4680 hc        1 MOL      0.029723
    138 H59        -7.4470    2.9860    1.2390 hc        1 MOL      0.029723
    139 H60        -8.4820   -0.3850    1.3190 ha        1 MOL      0.166688
    140 H61        -5.0300    1.9450    2.4370 ha        1 MOL      0.166688
    141 H62        -7.7920   -2.0660    2.9020 ha        1 MOL      0.127696
    142 H63        -4.2830    0.0990    4.0200 ha        1 MOL      0.127696
    143 H64        -6.3070   -2.4560    4.8340 ho        1 MOL      0.306267
    144 N13        -5.0540    4.0620   -0.0850 n         1 MOL     -0.446432
    145 C48        -3.9760    5.0280    0.3310 c3        1 MOL      0.002008
    146 C49        -2.7200    5.1850   -0.5010 c         1 MOL      0.095776
    147 O21        -2.1370    6.2900   -0.5380 o         1 MOL     -0.455838
    148 C50        -3.5560    4.8480    1.8480 c3        1 MOL      0.203825
    149 C51        -4.6920    5.0560    2.8030 c3        1 MOL     -0.138284
    150 C52        -4.1490    5.4510    4.2220 c         1 MOL      0.602618
    151 O22        -4.5110    6.5740    4.5670 o         1 MOL     -0.685364
    152 O23        -3.2760    4.7130    4.6700 o         1 MOL     -0.685364
    153 H65        -5.9950    4.4300   -0.1830 hn        1 MOL      0.275357
    154 H66        -4.4160    6.0190    0.1820 h1        1 MOL      0.096138
    155 H67        -2.8620    5.6600    2.0510 hc        1 MOL      0.041407
    156 H68        -3.0070    3.9140    1.9580 hc        1 MOL      0.041407
    157 H69        -5.3000    4.1490    2.7950 hc        1 MOL     -0.030253
    158 H70        -5.3750    5.7910    2.3660 hc        1 MOL     -0.030253
    159 N14        -2.2470    4.1080   -1.1180 n         1 MOL      0.023844
    160 C53        -1.1340    4.0480   -2.0880 c3        1 MOL     -0.012935
    161 C54        -1.4910    4.7670   -3.3840 c         1 MOL      0.343565
    162 O24        -0.6830    5.5320   -3.8930 o         1 MOL     -0.517080
    163 C55        -0.5300    2.6240   -2.1710 c3        1 MOL     -0.121126
    164 C56        -0.1440    1.9200   -0.9310 c3        1 MOL      0.224547
    165 C57         0.9440    2.5280   -0.1020 c         1 MOL      0.629153
    166 O25         0.7230    3.6220    0.4970 o         1 MOL     -0.655024
    167 O26         1.9720    1.9130    0.0940 o         1 MOL     -0.655024
    168 H71        -2.7090    3.2490   -0.8850 hn        1 MOL      0.111587
    169 H72        -0.3600    4.6870   -1.6780 h1        1 MOL      0.131853
    170 H73         0.3130    2.7280   -2.8520 hc        1 MOL      0.014911
    171 H74        -1.2350    2.0180   -2.7490 hc        1 MOL      0.014911
    172 H75         0.1580    0.9660   -1.3500 hc        1 MOL     -0.117607
    173 H76        -1.0600    1.7240   -0.3730 hc        1 MOL     -0.117607
    174 N15        -2.7440    4.7820   -3.7270 n         1 MOL     -0.037138
    175 C58        -3.3760    5.4460   -4.8080 c3        1 MOL     -0.283451
    176 H77        -4.0720    4.7650   -5.2970 h1        1 MOL      0.096185
    177 H78        -3.9200    6.3140   -4.4340 h1        1 MOL      0.096185
    178 H79        -2.6220    5.7710   -5.5260 h1        1 MOL      0.096185
    179 H80        -3.3620    4.1310   -3.2820 hn        1 MOL      0.141031
    180 Ca1         4.3610    1.7870    1.0000 Ca        1 MOL      1.665072
    181 O27         5.1120    2.7910    3.9170 oh        1 MOL     -0.827946
    182 H81         4.6730    3.6340    3.9800 ho        1 MOL      0.386130
    183 H82         4.4240    2.1470    4.1100 ho        1 MOL      0.386130
    184 O28         3.4500    4.3190    0.7950 oh        1 MOL     -0.827946
    185 H83         3.7780    4.9660    0.1710 ho        1 MOL      0.386130
    186 H84         2.4950    4.3770    0.7070 ho        1 MOL      0.386130
    187 O29         6.1380    0.3580    2.5230 oh        1 MOL     -0.827946
    188 H85         6.3160    0.2750    3.4620 ho        1 MOL      0.386130
    189 H86         6.9450    0.0430    2.1030 ho        1 MOL      0.386130
@<TRIPOS>BOND
     1    1    2 1   
     2    1    4 1   
     3    1    5 1   
     4    1    6 1   
     5    2    3 2   
     6    2    7 1   
     7    7    8 1   
     8    7   15 1   
     9    8    9 1   
    10    8   11 1   
    11    8   16 1   
    12    9   10 2   
    13    9   19 1   
    14   11   12 1   
    15   11   17 1   
    16   11   18 1   
    17   12   13 1   
    18   12   14 1   
    19   19   20 1   
    20   19   27 1   
    21   20   21 1   
    22   20   23 1   
    23   20   28 1   
    24   21   22 2   
    25   21   38 1   
    26   23   24 1   
    27   23   25 1   
    28   23   29 1   
    29   24   26 1   
    30   24   30 1   
    31   24   31 1   
    32   25   32 1   
    33   25   33 1   
    34   25   34 1   
    35   26   35 1   
    36   26   36 1   
    37   26   37 1   
    38   38   39 1   
    39   38   46 1   
    40   39   40 1   
    41   39   42 1   
    42   39   47 1   
    43   40   41 2   
    44   40   50 1   
    45   42   43 1   
    46   42   48 1   
    47   42   49 1   
    48   43   44 1   
    49   43   45 1   
    50   50   51 1   
    51   50   54 1   
    52   51   52 1   
    53   51   55 1   
    54   51   56 1   
    55   52   53 2   
    56   52   57 1   
    57   57   58 1   
    58   57   65 1   
    59   58   59 1   
    60   58   61 1   
    61   58   66 1   
    62   59   60 2   
    63   59   69 1   
    64   61   62 1   
    65   61   67 1   
    66   61   68 1   
    67   62   63 1   
    68   62   64 1   
    69   69   70 1   
    70   69   73 1   
    71   70   71 1   
    72   70   74 1   
    73   70   75 1   
    74   71   72 2   
    75   71   76 1   
    76   76   77 1   
    77   76   85 1   
    78   77   78 1   
    79   77   80 1   
    80   77   86 1   
    81   78   79 2   
    82   78   93 1   
    83   80   81 1   
    84   80   87 1   
    85   80   88 1   
    86   81   82 1   
    87   81   89 1   
    88   81   90 1   
    89   82   83 1   
    90   82   84 2   
    91   83   91 1   
    92   83   92 1   
    93   93   94 1   
    94   93  100 1   
    95   94   95 1   
    96   94   97 1   
    97   94  101 1   
    98   95   96 2   
    99   95  109 1   
   100   97   98 1   
   101   97   99 1   
   102   97  102 1   
   103   98  103 1   
   104   98  104 1   
   105   98  105 1   
   106   99  106 1   
   107   99  107 1   
   108   99  108 1   
   109  109  110 1   
   110  109  117 1   
   111  110  111 1   
   112  110  113 1   
   113  110  118 1   
   114  111  112 2   
   115  111  123 1   
   116  113  114 1   
   117  113  119 1   
   118  113  120 1   
   119  114  115 1   
   120  114  116 2   
   121  115  121 1   
   122  115  122 1   
   123  123  124 1   
   124  123  135 1   
   125  124  125 1   
   126  124  127 1   
   127  124  136 1   
   128  125  126 2   
   129  125  144 1   
   130  127  128 1   
   131  127  137 1   
   132  127  138 1   
   133  128  129 ar  
   134  128  130 ar  
   135  129  131 ar  
   136  129  139 1   
   137  130  132 ar  
   138  130  140 1   
   139  131  133 ar  
   140  131  141 1   
   141  132  133 ar  
   142  132  142 1   
   143  133  134 1   
   144  134  143 1   
   145  144  145 1   
   146  144  153 1   
   147  145  146 1   
   148  145  148 1   
   149  145  154 1   
   150  146  147 2   
   151  146  159 1   
   152  148  149 1   
   153  148  155 1   
   154  148  156 1   
   155  149  150 1   
   156  149  157 1   
   157  149  158 1   
   158  150  151 1   
   159  150  152 1   
   160  159  160 1   
   161  159  168 1   
   162  160  161 1   
   163  160  163 1   
   164  160  169 1   
   165  161  162 2   
   166  161  174 1   
   167  163  164 1   
   168  163  170 1   
   169  163  171 1   
   170  164  165 1   
   171  164  172 1   
   172  164  173 1   
   173  165  166 1   
   174  165  167 1   
   175  174  175 1   
   176  174  179 1   
   177  175  176 1   
   178  175  177 1   
   179  175  178 1   
   180  181  182 1   
   181  181  183 1   
   182  184  185 1   
   183  184  186 1   
   184  187  188 1   
   185  187  189 1   
@<TRIPOS>SUBSTRUCTURE
     1 MOL         1 TEMP              0 ****  ****    0 ROOT
