@<TRIPOS>MOLECULE
MOL
  189   185     1     0     0
SMALL
resp


@<TRIPOS>ATOM
      1 C1          4.0910    4.4580   -3.7410 c3        1 MOL     -0.419620
      2 C2          4.8040    3.4860   -2.7260 c         1 MOL      0.703823
      3 O1          4.2740    3.1760   -1.6840 o         1 MOL     -0.579628
      4 H1          3.4460    3.8800   -4.4040 hc        1 MOL      0.106964
      5 H2          3.4890    5.1810   -3.1910 hc        1 MOL      0.106964
      6 H3          4.8420    4.9830   -4.3310 hc        1 MOL      0.106964
      7 N1          6.0750    3.0910   -2.9820 n         1 MOL     -0.571887
      8 C3          6.7680    2.0430   -2.2610 c3        1 MOL      0.345797
      9 C4          5.9430    0.7610   -2.0100 c         1 MOL      0.460750
     10 O2          5.5450    0.5140   -0.8320 o         1 MOL     -0.549171
     11 C5          7.7310    2.5100   -1.1600 c3        1 MOL     -0.309044
     12 C6          7.1230    3.3130    0.0080 c         1 MOL      0.757926
     13 O3          6.2370    2.8410    0.7760 o         1 MOL     -0.720392
     14 O4          7.5300    4.5200    0.1090 o         1 MOL     -0.720392
     15 H4          6.3670    3.2810   -3.9280 hn        1 MOL      0.272737
     16 H5          7.4710    1.6600   -2.9940 h1        1 MOL     -0.016656
     17 H6          8.5760    3.0260   -1.6170 hc        1 MOL      0.053207
     18 H7          8.0960    1.6070   -0.6900 hc        1 MOL      0.053207
     19 N2          5.5910    0.1240   -3.1370 n         1 MOL     -0.580592
     20 C7          4.7280   -1.1030   -3.2450 c3        1 MOL      0.204273
     21 C8          5.3240   -2.3560   -2.5130 c         1 MOL      0.374855
     22 O5          5.5200   -3.3760   -3.2030 o         1 MOL     -0.570846
     23 C9          3.2250   -0.7240   -3.0050 c3        1 MOL      0.230214
     24 C10         2.3120   -1.9650   -3.1580 c3        1 MOL     -0.062258
     25 C11         2.5880    0.4320   -3.7850 c3        1 MOL     -0.332746
     26 C12         1.9760   -2.5500   -4.5250 c3        1 MOL     -0.243084
     27 H8          5.9090    0.5380   -4.0050 hn        1 MOL      0.288107
     28 H9          4.8260   -1.3920   -4.2890 h1        1 MOL      0.014357
     29 H10         3.2900   -0.4640   -1.9440 hc        1 MOL     -0.113604
     30 H11         1.3490   -1.7790   -2.6870 hc        1 MOL      0.069792
     31 H12         2.7260   -2.7930   -2.5760 hc        1 MOL      0.069792
     32 H13         3.1510    1.3480   -3.5950 hc        1 MOL      0.069273
     33 H14         2.5830    0.1990   -4.8400 hc        1 MOL      0.069273
     34 H15         1.6000    0.5840   -3.3430 hc        1 MOL      0.069273
     35 H16         1.4330   -1.8810   -5.1970 hc        1 MOL      0.041752
     36 H17         2.9950   -2.7590   -4.8620 hc        1 MOL      0.041752
     37 H18         1.4370   -3.4750   -4.3220 hc        1 MOL      0.041752
     38 N3          5.6140   -2.2170   -1.2300 n         1 MOL     -0.018078
     39 C13         6.5240   -3.1690   -0.5070 c3        1 MOL      0.000109
     40 C14         6.0450   -4.5970   -0.1950 c         1 MOL      0.537465
     41 O6          6.8950   -5.4550   -0.2930 o         1 MOL     -0.539053
     42 C15         7.2690   -2.4790    0.6790 c3        1 MOL     -0.329718
     43 C16         8.4940   -3.1940    1.1200 c         1 MOL      0.816356
     44 O7          9.4870   -3.1160    0.3440 o         1 MOL     -0.762302
     45 O8          8.5740   -3.6940    2.2580 o         1 MOL     -0.762302
     46 H19         5.4560   -1.3290   -0.7730 hn        1 MOL      0.116003
     47 H20         7.2080   -3.3420   -1.3370 h1        1 MOL      0.038286
     48 H21         6.5790   -2.3460    1.5060 hc        1 MOL      0.095443
     49 H22         7.5510   -1.4560    0.4110 hc        1 MOL      0.095443
     50 N4          4.7970   -4.8600    0.2080 n         1 MOL     -0.442948
     51 C17         3.7010   -3.9390    0.5210 c3        1 MOL      0.075326
     52 C18         2.4290   -4.5940    1.0620 c         1 MOL      0.682728
     53 O9          2.1470   -5.7240    0.8060 o         1 MOL     -0.578941
     54 H23         4.5550   -5.8370    0.2180 hn        1 MOL      0.238555
     55 H24         3.4220   -3.5310   -0.4530 h1        1 MOL      0.040383
     56 H25         4.1490   -3.2630    1.2500 h1        1 MOL      0.040383
     57 N5          1.5800   -3.9040    1.8730 n         1 MOL     -0.661698
     58 C19         1.8110   -2.6350    2.5280 c3        1 MOL      0.310983
     59 C20         2.1360   -1.4940    1.4500 c         1 MOL      0.091124
     60 O10         3.2900   -1.0310    1.4230 o         1 MOL     -0.428352
     61 C21         2.8870   -2.6230    3.6270 c3        1 MOL     -0.296112
     62 C22         2.9940   -1.2760    4.3300 c         1 MOL      0.659408
     63 O11         4.0930   -0.8580    4.8150 o         1 MOL     -0.654985
     64 O12         1.9500   -0.5290    4.2260 o         1 MOL     -0.654985
     65 H26         0.6980   -4.3140    2.1560 hn        1 MOL      0.312481
     66 H27         0.9330   -2.3370    3.1020 h1        1 MOL      0.033359
     67 H28         3.8860   -2.8720    3.2810 hc        1 MOL      0.072602
     68 H29         2.6570   -3.4140    4.3410 hc        1 MOL      0.072602
     69 N6          1.1630   -1.0870    0.6000 n         1 MOL     -0.118794
     70 C23        -0.2610   -1.3410    0.6050 c3        1 MOL     -0.014419
     71 C24        -0.7260   -2.5880   -0.2020 c         1 MOL      0.486445
     72 O13        -0.0030   -3.1150   -1.0630 o         1 MOL     -0.470417
     73 H30         1.4780   -0.3680   -0.0280 hn        1 MOL      0.119359
     74 H31        -0.7630   -0.4710    0.1810 h1        1 MOL      0.063797
     75 H32        -0.6700   -1.4520    1.6170 h1        1 MOL      0.063797
     76 N7         -2.0460   -2.9960   -0.0320 n         1 MOL     -0.404625
     77 C25        -2.6880   -4.0710   -0.6770 c3        1 MOL      0.088068
     78 C26        -3.4770   -3.6970   -1.8950 c         1 MOL      0.371536
     79 O14        -3.7020   -4.5410   -2.8050 o         1 MOL     -0.529812
     80 C27        -3.3820   -4.8810    0.4740 c3        1 MOL     -0.240241
     81 C28        -4.4330   -4.2590    1.4040 c3        1 MOL     -0.095402
     82 C29        -5.5830   -3.7520    0.6500 c         1 MOL      0.269376
     83 N8         -6.3700   -4.6170    0.1190 n         1 MOL     -0.566513
     84 O15        -5.7640   -2.5800    0.4720 o         1 MOL     -0.415699
     85 H33        -2.6210   -2.4200    0.5710 hn        1 MOL      0.201037
     86 H34        -1.8460   -4.6190   -1.1160 h1        1 MOL      0.108839
     87 H35        -2.6590   -5.3050    1.1740 hc        1 MOL      0.082024
     88 H36        -3.9410   -5.6580   -0.0480 hc        1 MOL      0.082024
     89 H37        -4.0230   -3.4570    2.0120 hc        1 MOL      0.104192
     90 H38        -4.6380   -5.0270    2.1470 hc        1 MOL      0.104192
     91 H39        -6.2300   -5.5890    0.3810 hn        1 MOL      0.325866
     92 H40        -7.0210   -4.2080   -0.5200 hn        1 MOL      0.325866
     93 N9         -3.9630   -2.4460   -1.9670 n         1 MOL     -0.027881
     94 C30        -4.4280   -1.8420   -3.2000 c3        1 MOL     -0.302223
     95 C31        -5.7260   -1.0600   -3.0720 c         1 MOL      0.483127
     96 O16        -6.2200   -0.5590   -4.1390 o         1 MOL     -0.589345
     97 C32        -3.3660   -0.8260   -3.7960 c3        1 MOL      0.097730
     98 C33        -2.0640   -1.5580   -4.1700 c3        1 MOL     -0.150042
     99 C34        -2.8560    0.3030   -2.8830 c3        1 MOL     -0.150042
    100 H41        -3.7310   -1.8470   -1.1880 hn        1 MOL      0.262990
    101 H42        -4.5190   -2.6030   -3.9780 h1        1 MOL      0.180276
    102 H43        -3.6690   -0.4460   -4.7690 hc        1 MOL      0.034238
    103 H44        -1.3310   -0.9790   -4.7220 hc        1 MOL      0.041559
    104 H45        -1.6490   -1.9630   -3.2370 hc        1 MOL      0.041559
    105 H46        -2.3350   -2.4120   -4.7910 hc        1 MOL      0.041559
    106 H47        -2.6060   -0.1120   -1.8960 hc        1 MOL      0.041559
    107 H48        -1.9580    0.8140   -3.2190 hc        1 MOL      0.041559
    108 H49        -3.5850    1.1010   -2.7250 hc        1 MOL      0.041559
    109 N10        -6.2870   -0.8420   -1.9180 n         1 MOL     -0.053231
    110 C35        -7.5230   -0.0450   -1.7400 c3        1 MOL     -0.029581
    111 C36        -7.2660    1.0590   -0.7160 c         1 MOL      0.523689
    112 O17        -8.1650    1.8680   -0.4410 o         1 MOL     -0.564825
    113 C37        -8.6370   -0.9270   -1.2170 c3        1 MOL     -0.232599
    114 C38        -8.9740   -2.1250   -2.1010 c         1 MOL      0.542748
    115 N11        -9.7290   -1.8680   -3.1540 n         1 MOL     -0.711100
    116 O18        -8.5440   -3.2740   -1.9240 o         1 MOL     -0.528979
    117 H50        -5.8460   -1.4070   -1.2100 hn        1 MOL      0.067138
    118 H51        -7.7750    0.4930   -2.6560 h1        1 MOL      0.093822
    119 H52        -9.5420   -0.4220   -0.8770 hc        1 MOL      0.097445
    120 H53        -8.2310   -1.3110   -0.2840 hc        1 MOL      0.097445
    121 H54       -10.0240   -0.9160   -3.3010 hn        1 MOL      0.356048
    122 H55        -9.9820   -2.6630   -3.7150 hn        1 MOL      0.356048
    123 N12        -6.1430    1.1260   -0.0080 n         1 MOL     -0.429878
    124 C39        -5.9580    2.0440    1.0900 c3        1 MOL      0.436402
    125 C40        -4.4410    2.4800    1.3050 c         1 MOL      0.265094
    126 O19        -3.4870    1.9150    0.7400 o         1 MOL     -0.399525
    127 C41        -6.5080    1.5520    2.3800 c3        1 MOL     -0.461962
    128 C42        -5.7700    0.3930    2.9380 ca        1 MOL      0.220359
    129 C43        -4.7350    0.5590    3.9020 ca        1 MOL     -0.226170
    130 C44        -6.3930   -0.8860    2.7990 ca        1 MOL     -0.226170
    131 C45        -4.1840   -0.5290    4.6280 ca        1 MOL     -0.262666
    132 C46        -5.9190   -1.9610    3.5750 ca        1 MOL     -0.262666
    133 C47        -4.8050   -1.7780    4.4850 ca        1 MOL      0.359805
    134 O20        -4.2810   -2.7720    5.2200 oh        1 MOL     -0.607215
    135 H56        -5.3810    0.5040   -0.2560 hn        1 MOL      0.150830
    136 H57        -6.4970    2.9510    0.8150 h1        1 MOL     -0.009263
    137 H58        -7.5030    1.1950    2.1280 hc        1 MOL      0.124304
    138 H59        -6.4250    2.4010    3.0740 hc        1 MOL      0.124304
    139 H60        -4.4330    1.5860    4.1000 ha        1 MOL      0.164330
    140 H61        -7.1910   -1.1070    2.0970 ha        1 MOL      0.164330
    141 H62        -3.2780   -0.4290    5.1980 ha        1 MOL      0.159083
    142 H63        -6.4420   -2.9000    3.5030 ha        1 MOL      0.159083
    143 H64        -3.4750   -2.5020    5.6640 ho        1 MOL      0.456997
    144 N13        -4.1620    3.5750    2.0960 n         1 MOL     -0.500003
    145 C48        -2.9240    4.2410    2.2890 c3        1 MOL      0.086548
    146 C49        -2.2800    4.9170    1.0460 c         1 MOL      0.435599
    147 O21        -1.6490    5.9580    1.2890 o         1 MOL     -0.561581
    148 C50        -1.8910    3.4360    3.0310 c3        1 MOL      0.137946
    149 C51        -0.8480    4.2760    3.8350 c3        1 MOL     -0.637973
    150 C52         0.0360    3.2240    4.5490 c         1 MOL      0.775509
    151 O22         1.2690    3.2390    4.3690 o         1 MOL     -0.697572
    152 O23        -0.5340    2.3360    5.2750 o         1 MOL     -0.697572
    153 H65        -4.9570    4.1030    2.4340 hn        1 MOL      0.295472
    154 H66        -3.1150    5.0910    2.9360 h1        1 MOL      0.047264
    155 H67        -1.3220    2.7630    2.3890 hc        1 MOL      0.053261
    156 H68        -2.3700    2.7510    3.7270 hc        1 MOL      0.053261
    157 H69        -1.2440    5.0580    4.4720 hc        1 MOL      0.165283
    158 H70        -0.1690    4.7170    3.0960 hc        1 MOL      0.165283
    159 N14        -2.0890    4.2570   -0.1120 n         1 MOL     -0.455655
    160 C53        -1.1740    4.6320   -1.2130 c3        1 MOL      0.009543
    161 C54        -1.5340    5.9090   -2.0700 c         1 MOL      0.452423
    162 O24        -0.8470    6.2010   -3.0290 o         1 MOL     -0.508414
    163 C55        -0.8190    3.3770   -2.0280 c3        1 MOL     -0.083681
    164 C56        -0.3960    2.1250   -1.2420 c3        1 MOL      0.540756
    165 C57         1.0110    2.2620   -0.6630 c         1 MOL      0.561359
    166 O25         1.2830    3.2270    0.0080 o         1 MOL     -0.629249
    167 O26         1.8660    1.3590   -0.7890 o         1 MOL     -0.629249
    168 H71        -2.5170    3.3380   -0.1370 hn        1 MOL      0.254013
    169 H72        -0.2540    4.9160   -0.6960 h1        1 MOL      0.140887
    170 H73        -0.0990    3.6900   -2.7870 hc        1 MOL     -0.007335
    171 H74        -1.7410    3.0590   -2.5080 hc        1 MOL     -0.007335
    172 H75        -0.4090    1.2730   -1.9180 hc        1 MOL     -0.167295
    173 H76        -1.1180    1.8870   -0.4600 hc        1 MOL     -0.167295
    174 N15        -2.6780    6.6060   -1.8380 n         1 MOL     -0.265853
    175 C58        -3.2980    7.5310   -2.7860 c3        1 MOL     -0.095703
    176 H77        -3.9680    6.9800   -3.4450 h1        1 MOL      0.058212
    177 H78        -3.8650    8.2850   -2.2410 h1        1 MOL      0.058212
    178 H79        -2.5230    8.0170   -3.3800 h1        1 MOL      0.058212
    179 H80        -3.1640    6.3950   -0.9770 hn        1 MOL      0.227082
    180 Ca1         3.8530    1.8290    0.8290 Ca        1 MOL      1.768308
    181 O27         5.2460    0.9590    2.9420 oh        1 MOL     -0.884858
    182 H81         4.9210    0.4180    3.6570 ho        1 MOL      0.419550
    183 H82         6.1880    1.0290    3.0920 ho        1 MOL      0.419550
    184 O28         1.9820    1.5050    2.6410 oh        1 MOL     -0.884858
    185 H83         1.9660    0.7390    3.2270 ho        1 MOL      0.419550
    186 H84         1.7220    2.2350    3.2010 ho        1 MOL      0.419550
    187 O29         3.9150    4.2800    1.8080 oh        1 MOL     -0.884858
    188 H85         4.6600    4.8590    1.9410 ho        1 MOL      0.419550
    189 H86         3.1550    4.8720    1.7460 ho        1 MOL      0.419550
@<TRIPOS>BOND
     1    1    2 1   
     2    1    4 1   
     3    1    5 1   
     4    1    6 1   
     5    2    3 2   
     6    2    7 1   
     7    7    8 1   
     8    7   15 1   
     9    8    9 1   
    10    8   11 1   
    11    8   16 1   
    12    9   10 2   
    13    9   19 1   
    14   11   12 1   
    15   11   17 1   
    16   11   18 1   
    17   12   13 1   
    18   12   14 1   
    19   19   20 1   
    20   19   27 1   
    21   20   21 1   
    22   20   23 1   
    23   20   28 1   
    24   21   22 2   
    25   21   38 1   
    26   23   24 1   
    27   23   25 1   
    28   23   29 1   
    29   24   26 1   
    30   24   30 1   
    31   24   31 1   
    32   25   32 1   
    33   25   33 1   
    34   25   34 1   
    35   26   35 1   
    36   26   36 1   
    37   26   37 1   
    38   38   39 1   
    39   38   46 1   
    40   39   40 1   
    41   39   42 1   
    42   39   47 1   
    43   40   41 2   
    44   40   50 1   
    45   42   43 1   
    46   42   48 1   
    47   42   49 1   
    48   43   44 1   
    49   43   45 1   
    50   50   51 1   
    51   50   54 1   
    52   51   52 1   
    53   51   55 1   
    54   51   56 1   
    55   52   53 2   
    56   52   57 1   
    57   57   58 1   
    58   57   65 1   
    59   58   59 1   
    60   58   61 1   
    61   58   66 1   
    62   59   60 2   
    63   59   69 1   
    64   61   62 1   
    65   61   67 1   
    66   61   68 1   
    67   62   63 1   
    68   62   64 1   
    69   69   70 1   
    70   69   73 1   
    71   70   71 1   
    72   70   74 1   
    73   70   75 1   
    74   71   72 2   
    75   71   76 1   
    76   76   77 1   
    77   76   85 1   
    78   77   78 1   
    79   77   80 1   
    80   77   86 1   
    81   78   79 2   
    82   78   93 1   
    83   80   81 1   
    84   80   87 1   
    85   80   88 1   
    86   81   82 1   
    87   81   89 1   
    88   81   90 1   
    89   82   83 1   
    90   82   84 2   
    91   83   91 1   
    92   83   92 1   
    93   93   94 1   
    94   93  100 1   
    95   94   95 1   
    96   94   97 1   
    97   94  101 1   
    98   95   96 2   
    99   95  109 1   
   100   97   98 1   
   101   97   99 1   
   102   97  102 1   
   103   98  103 1   
   104   98  104 1   
   105   98  105 1   
   106   99  106 1   
   107   99  107 1   
   108   99  108 1   
   109  109  110 1   
   110  109  117 1   
   111  110  111 1   
   112  110  113 1   
   113  110  118 1   
   114  111  112 2   
   115  111  123 1   
   116  113  114 1   
   117  113  119 1   
   118  113  120 1   
   119  114  115 1   
   120  114  116 2   
   121  115  121 1   
   122  115  122 1   
   123  123  124 1   
   124  123  135 1   
   125  124  125 1   
   126  124  127 1   
   127  124  136 1   
   128  125  126 2   
   129  125  144 1   
   130  127  128 1   
   131  127  137 1   
   132  127  138 1   
   133  128  129 ar  
   134  128  130 ar  
   135  129  131 ar  
   136  129  139 1   
   137  130  132 ar  
   138  130  140 1   
   139  131  133 ar  
   140  131  141 1   
   141  132  133 ar  
   142  132  142 1   
   143  133  134 1   
   144  134  143 1   
   145  144  145 1   
   146  144  153 1   
   147  145  146 1   
   148  145  148 1   
   149  145  154 1   
   150  146  147 2   
   151  146  159 1   
   152  148  149 1   
   153  148  155 1   
   154  148  156 1   
   155  149  150 1   
   156  149  157 1   
   157  149  158 1   
   158  150  151 1   
   159  150  152 1   
   160  159  160 1   
   161  159  168 1   
   162  160  161 1   
   163  160  163 1   
   164  160  169 1   
   165  161  162 2   
   166  161  174 1   
   167  163  164 1   
   168  163  170 1   
   169  163  171 1   
   170  164  165 1   
   171  164  172 1   
   172  164  173 1   
   173  165  166 1   
   174  165  167 1   
   175  174  175 1   
   176  174  179 1   
   177  175  176 1   
   178  175  177 1   
   179  175  178 1   
   180  181  182 1   
   181  181  183 1   
   182  184  185 1   
   183  184  186 1   
   184  187  188 1   
   185  187  189 1   
@<TRIPOS>SUBSTRUCTURE
     1 MOL         1 TEMP              0 ****  ****    0 ROOT
