@<TRIPOS>MOLECULE
MOL
  189   185     1     0     0
SMALL
resp


@<TRIPOS>ATOM
      1 C1          5.3960    3.8840   -3.8400 c3        1 MOL     -0.462640
      2 C2          5.9440    3.1500   -2.6390 c         1 MOL      0.926622
      3 O1          5.1990    2.9810   -1.6860 o         1 MOL     -0.765017
      4 H1          5.7070    4.9270   -3.8010 hc        1 MOL      0.115267
      5 H2          5.7770    3.4250   -4.7520 hc        1 MOL      0.115267
      6 H3          4.3070    3.8290   -3.8330 hc        1 MOL      0.115267
      7 N1          7.2090    2.6570   -2.6280 n         1 MOL     -0.776906
      8 C3          7.6940    1.6120   -1.6900 c3        1 MOL      0.315943
      9 C4          6.7480    0.4310   -1.3590 c         1 MOL      0.208631
     10 O2          6.1460    0.4160   -0.2620 o         1 MOL     -0.322237
     11 C5          8.3650    2.1690   -0.4870 c3        1 MOL     -0.100173
     12 C6          7.6930    3.4150    0.1600 c         1 MOL      0.826668
     13 O3          6.7110    3.2210    0.9000 o         1 MOL     -0.760343
     14 O4          8.1460    4.5370    0.0970 o         1 MOL     -0.760343
     15 H4          7.8420    2.7860   -3.4110 hn        1 MOL      0.353080
     16 H5          8.5950    1.2520   -2.1990 h1        1 MOL      0.011368
     17 H6          9.3200    2.5730   -0.8180 hc        1 MOL     -0.006932
     18 H7          8.5170    1.4520    0.3270 hc        1 MOL     -0.006932
     19 N2          6.3490   -0.2960   -2.4310 n         1 MOL     -0.419865
     20 C7          5.4730   -1.5640   -2.4770 c3        1 MOL      0.005054
     21 C8          6.1470   -2.6750   -1.6980 c         1 MOL      0.339093
     22 O5          6.3910   -3.7670   -2.2440 o         1 MOL     -0.556733
     23 C9          4.0140   -1.3430   -2.2450 c3        1 MOL      0.505422
     24 C10         3.1290   -2.5800   -2.6510 c3        1 MOL     -0.066096
     25 C11         3.3800    0.0070   -2.7370 c3        1 MOL     -0.301250
     26 C12         3.0690   -2.8960   -4.1600 c3        1 MOL     -0.225681
     27 H8          6.6960    0.1440   -3.2720 hn        1 MOL      0.245940
     28 H9          5.4740   -1.8240   -3.5310 h1        1 MOL      0.050336
     29 H10         3.8820   -1.4000   -1.1660 hc        1 MOL     -0.289813
     30 H11         2.1060   -2.4090   -2.3250 hc        1 MOL      0.079393
     31 H12         3.4970   -3.5180   -2.2510 hc        1 MOL      0.079393
     32 H13         3.5320    0.1540   -3.8020 hc        1 MOL      0.056870
     33 H14         2.3210    0.0260   -2.4840 hc        1 MOL      0.056870
     34 H15         3.8310    0.7960   -2.1380 hc        1 MOL      0.056870
     35 H16         4.0380   -3.1970   -4.5480 hc        1 MOL      0.030263
     36 H17         2.2840   -3.6300   -4.2710 hc        1 MOL      0.030263
     37 H18         2.8430   -1.9880   -4.7260 hc        1 MOL      0.030263
     38 N3          6.3000   -2.4750   -0.4050 n         1 MOL      0.070110
     39 C13         6.8360   -3.4860    0.5290 c3        1 MOL     -0.086843
     40 C14         5.9090   -4.7100    0.6380 c         1 MOL      0.548523
     41 O6          6.3720   -5.8470    0.5160 o         1 MOL     -0.566362
     42 C15         7.2260   -2.9440    1.9360 c3        1 MOL     -0.117601
     43 C16         8.1370   -1.7780    1.7770 c         1 MOL      0.735350
     44 O7          7.7540   -0.6970    2.3090 o         1 MOL     -0.716156
     45 O8          9.1410   -2.0040    1.0750 o         1 MOL     -0.716156
     46 H19         5.9440   -1.5860   -0.0790 hn        1 MOL      0.108465
     47 H20         7.7120   -3.8890    0.0290 h1        1 MOL      0.071442
     48 H21         7.6760   -3.6690    2.6040 hc        1 MOL      0.037683
     49 H22         6.2430   -2.6670    2.3130 hc        1 MOL      0.037683
     50 N4          4.5700   -4.5930    0.9610 n         1 MOL     -0.525773
     51 C17         3.7030   -3.4010    1.0660 c3        1 MOL      0.124440
     52 C18         2.5870   -3.8180    1.9960 c         1 MOL      0.513427
     53 O9          2.2420   -4.9790    2.0960 o         1 MOL     -0.576480
     54 H23         4.0500   -5.4540    0.9040 hn        1 MOL      0.288381
     55 H24         3.3070   -3.0750    0.0940 h1        1 MOL      0.042523
     56 H25         4.2740   -2.5530    1.4540 h1        1 MOL      0.042523
     57 N5          1.9940   -2.9450    2.8400 n         1 MOL     -0.449192
     58 C19         2.3480   -1.5600    3.1440 c3        1 MOL      0.310143
     59 C20         2.4700   -0.5890    1.9770 c         1 MOL      0.070807
     60 O10         3.5890   -0.1930    1.7150 o         1 MOL     -0.418941
     61 C21         3.4880   -1.5850    4.1570 c3        1 MOL     -0.440158
     62 C22         3.7570   -0.2150    4.8200 c         1 MOL      0.744045
     63 O11         4.8110    0.0200    5.4220 o         1 MOL     -0.698408
     64 O12         2.9540    0.7260    4.6610 o         1 MOL     -0.698408
     65 H26         1.1230   -3.2640    3.2350 hn        1 MOL      0.266386
     66 H27         1.4060   -1.3180    3.6300 h1        1 MOL      0.017841
     67 H28         4.3830   -1.8880    3.6210 hc        1 MOL      0.106416
     68 H29         3.2830   -2.3190    4.9370 hc        1 MOL      0.106416
     69 N6          1.4640   -0.3460    1.1450 n         1 MOL     -0.082106
     70 C23         0.1300   -0.9100    1.2540 c3        1 MOL     -0.109682
     71 C24        -0.0640   -2.2570    0.4950 c         1 MOL      0.814152
     72 O13         0.6540   -2.5530   -0.4340 o         1 MOL     -0.619108
     73 H30         1.6820    0.2480    0.3670 hn        1 MOL      0.180497
     74 H31        -0.5240   -0.2310    0.7080 h1        1 MOL      0.041560
     75 H32        -0.2520   -1.0700    2.2680 h1        1 MOL      0.041560
     76 N7         -1.0100   -3.0640    0.8890 n         1 MOL     -0.516020
     77 C25        -1.3860   -4.3520    0.2470 c3        1 MOL     -0.004710
     78 C26        -2.1040   -4.3320   -1.1170 c         1 MOL      0.331992
     79 O14        -2.2520   -5.3310   -1.7870 o         1 MOL     -0.499791
     80 C27        -2.0740   -5.3080    1.2070 c3        1 MOL      0.092740
     81 C28        -3.3150   -4.8630    1.9340 c3        1 MOL      0.027694
     82 C29        -4.5220   -4.4410    1.1140 c         1 MOL      0.441431
     83 N8         -5.2190   -5.4890    0.5710 n         1 MOL     -0.607154
     84 O15        -4.6960   -3.2460    0.8230 o         1 MOL     -0.572204
     85 H33        -1.5440   -2.8320    1.7150 hn        1 MOL      0.255640
     86 H34        -0.3950   -4.7270    0.0300 h1        1 MOL      0.118987
     87 H35        -1.3440   -5.4470    1.9960 hc        1 MOL     -0.010571
     88 H36        -2.2970   -6.2700    0.7270 hc        1 MOL     -0.010571
     89 H37        -3.0080   -4.0510    2.5920 hc        1 MOL      0.008445
     90 H38        -3.6470   -5.5940    2.6710 hc        1 MOL      0.008445
     91 H39        -5.0670   -6.4250    0.9120 hn        1 MOL      0.320753
     92 H40        -6.1190   -5.2260    0.1790 hn        1 MOL      0.320753
     93 N9         -2.5670   -3.1310   -1.4390 n         1 MOL     -0.012486
     94 C30        -3.0750   -2.8200   -2.7880 c3        1 MOL     -0.378108
     95 C31        -4.4810   -2.2770   -2.8100 c         1 MOL      0.550020
     96 O16        -4.9850   -2.1060   -3.9130 o         1 MOL     -0.578516
     97 C32        -1.9650   -1.9540   -3.4800 c3        1 MOL      0.377718
     98 C33        -0.6710   -2.7900   -3.5450 c3        1 MOL     -0.279830
     99 C34        -1.7550   -0.5980   -2.8140 c3        1 MOL     -0.279830
    100 H41        -2.5010   -2.3860   -0.7620 hn        1 MOL      0.103646
    101 H42        -3.0690   -3.7760   -3.3250 h1        1 MOL      0.160710
    102 H43        -2.2040   -1.7710   -4.5180 hc        1 MOL     -0.032625
    103 H44        -0.4220   -3.2700   -2.5960 hc        1 MOL      0.066743
    104 H45        -0.7940   -3.5950   -4.2630 hc        1 MOL      0.066743
    105 H46         0.1480   -2.1030   -3.7220 hc        1 MOL      0.066743
    106 H47        -2.7200   -0.1090   -2.7060 hc        1 MOL      0.066743
    107 H48        -1.1670   -0.6920   -1.9000 hc        1 MOL      0.066743
    108 H49        -1.2070   -0.0690   -3.5970 hc        1 MOL      0.066743
    109 N10        -5.2140   -1.9770   -1.7390 n         1 MOL     -0.399554
    110 C35        -6.5860   -1.4530   -1.8050 c3        1 MOL      0.105144
    111 C36        -6.7950   -0.0650   -1.1670 c         1 MOL      0.535897
    112 O17        -7.8610    0.5320   -1.3960 o         1 MOL     -0.551466
    113 C37        -7.4660   -2.5170   -1.0480 c3        1 MOL     -0.372079
    114 C38        -7.4850   -3.9440   -1.6470 c         1 MOL      0.675419
    115 N11        -7.6480   -4.1100   -2.9120 n         1 MOL     -0.718452
    116 O18        -7.5400   -4.9520   -0.9700 o         1 MOL     -0.589426
    117 H50        -4.7960   -2.0800   -0.8300 hn        1 MOL      0.370678
    118 H51        -6.9030   -1.4300   -2.8480 h1        1 MOL      0.066598
    119 H52        -8.4840   -2.1460   -1.1200 hc        1 MOL      0.139850
    120 H53        -7.0920   -2.6080   -0.0250 hc        1 MOL      0.139850
    121 H54        -7.6280   -3.3240   -3.5380 hn        1 MOL      0.356203
    122 H55        -7.5080   -5.0720   -3.2040 hn        1 MOL      0.356203
    123 N12        -5.8090    0.3990   -0.3900 n         1 MOL     -0.567356
    124 C39        -6.0040    1.6600    0.2990 c3        1 MOL      0.351117
    125 C40        -4.7160    2.5730    0.3180 c         1 MOL      0.405129
    126 O19        -3.6380    2.1540    0.5280 o         1 MOL     -0.452435
    127 C41        -6.6050    1.4170    1.6860 c3        1 MOL     -0.005991
    128 C42        -7.9030    0.6140    1.7460 ca        1 MOL     -0.009017
    129 C43        -9.0740    1.3310    1.4200 ca        1 MOL     -0.104885
    130 C44        -7.9810   -0.7490    2.0150 ca        1 MOL     -0.104885
    131 C45       -10.2990    0.6920    1.4710 ca        1 MOL     -0.264539
    132 C46        -9.1810   -1.3520    2.1850 ca        1 MOL     -0.264539
    133 C47       -10.4020   -0.6500    1.8510 ca        1 MOL      0.330356
    134 O20       -11.6230   -1.2260    1.9500 oh        1 MOL     -0.495406
    135 H56        -5.0010   -0.1570   -0.1740 hn        1 MOL      0.235080
    136 H57        -6.7490    2.2110   -0.2680 h1        1 MOL     -0.021164
    137 H58        -6.7140    2.4070    2.1220 hc        1 MOL      0.035496
    138 H59        -5.8710    0.9510    2.3330 hc        1 MOL      0.035496
    139 H60        -8.9950    2.3710    1.1630 ha        1 MOL      0.126453
    140 H61        -7.0940   -1.3520    2.1140 ha        1 MOL      0.126453
    141 H62       -11.2040    1.0940    1.0460 ha        1 MOL      0.123833
    142 H63        -9.3730   -2.4020    2.3840 ha        1 MOL      0.123833
    143 H64       -12.2960   -0.6380    1.6260 ho        1 MOL      0.355434
    144 N13        -4.9590    3.8750    0.2280 n         1 MOL     -0.538538
    145 C48        -4.1500    5.0110    0.5780 c3        1 MOL      0.194667
    146 C49        -3.0480    5.2650   -0.3730 c         1 MOL      0.580919
    147 O21        -2.7550    6.4410   -0.7280 o         1 MOL     -0.599935
    148 C50        -3.7790    5.0610    2.0670 c3        1 MOL     -0.037479
    149 C51        -4.9700    5.3070    3.0490 c3        1 MOL      0.012500
    150 C52        -4.6520    4.9410    4.5150 c         1 MOL      0.620384
    151 O22        -3.7410    5.5890    5.0530 o         1 MOL     -0.708824
    152 O23        -5.2240    3.9660    5.0900 o         1 MOL     -0.708824
    153 H65        -5.8550    4.1350   -0.1500 hn        1 MOL      0.297401
    154 H66        -4.7360    5.9060    0.3660 h1        1 MOL      0.004051
    155 H67        -3.1840    5.9540    2.2120 hc        1 MOL      0.053610
    156 H68        -3.2360    4.1360    2.2820 hc        1 MOL      0.053610
    157 H69        -5.8340    4.7400    2.6960 hc        1 MOL     -0.064403
    158 H70        -5.3100    6.3370    3.0410 hc        1 MOL     -0.064403
    159 N14        -2.5490    4.2530   -1.0440 n         1 MOL     -0.719101
    160 C53        -1.3870    4.3750   -1.9500 c3        1 MOL      0.250803
    161 C54        -1.6280    4.9280   -3.3350 c         1 MOL      0.433713
    162 O24        -0.6550    5.0170   -4.0580 o         1 MOL     -0.528788
    163 C55        -0.6750    3.0440   -2.0860 c3        1 MOL     -0.383290
    164 C56        -0.2300    2.3810   -0.7240 c3        1 MOL      0.359483
    165 C57         1.0740    2.9280   -0.3150 c         1 MOL      0.618209
    166 O25         1.1810    4.1550   -0.1370 o         1 MOL     -0.661348
    167 O26         2.0590    2.1690   -0.1120 o         1 MOL     -0.661348
    168 H71        -2.8950    3.3780   -0.6710 hn        1 MOL      0.347457
    169 H72        -0.6390    5.0730   -1.5900 h1        1 MOL      0.105940
    170 H73         0.2200    3.2680   -2.6670 hc        1 MOL      0.093770
    171 H74        -1.3920    2.3360   -2.4950 hc        1 MOL      0.093770
    172 H75        -0.0510    1.3260   -0.9250 hc        1 MOL     -0.095119
    173 H76        -0.9480    2.4190    0.0850 hc        1 MOL     -0.095119
    174 N15        -2.8320    5.3920   -3.6960 n         1 MOL     -0.277751
    175 C58        -3.2340    5.9990   -4.9940 c3        1 MOL     -0.132364
    176 H77        -3.0170    7.0670   -4.9780 h1        1 MOL      0.074763
    177 H78        -2.6770    5.5280   -5.8050 h1        1 MOL      0.074763
    178 H79        -4.3020    5.8480   -5.1510 h1        1 MOL      0.074763
    179 H80        -3.5140    5.4280   -2.9510 hn        1 MOL      0.248394
    180 Ca1         4.4310    2.2390    0.7350 Ca        1 MOL      1.756800
    181 O27         3.7330    4.6830    0.3640 oh        1 MOL     -0.883296
    182 H81         4.2000    5.4000   -0.0700 ho        1 MOL      0.422370
    183 H82         2.8610    4.6880   -0.0330 ho        1 MOL      0.422370
    184 O28         6.0830    1.2370    2.8430 oh        1 MOL     -0.883296
    185 H83         6.7060    0.5790    2.5310 ho        1 MOL      0.422370
    186 H84         6.1040    1.1620    3.7940 ho        1 MOL      0.422370
    187 O29         2.9450    2.9250    2.8230 oh        1 MOL     -0.883296
    188 H85         2.0480    3.2580    2.7320 ho        1 MOL      0.422370
    189 H86         2.9920    2.6060    3.7260 ho        1 MOL      0.422370
@<TRIPOS>BOND
     1    1    2 1   
     2    1    4 1   
     3    1    5 1   
     4    1    6 1   
     5    2    3 2   
     6    2    7 1   
     7    7    8 1   
     8    7   15 1   
     9    8    9 1   
    10    8   11 1   
    11    8   16 1   
    12    9   10 2   
    13    9   19 1   
    14   11   12 1   
    15   11   17 1   
    16   11   18 1   
    17   12   13 1   
    18   12   14 1   
    19   19   20 1   
    20   19   27 1   
    21   20   21 1   
    22   20   23 1   
    23   20   28 1   
    24   21   22 2   
    25   21   38 1   
    26   23   24 1   
    27   23   25 1   
    28   23   29 1   
    29   24   26 1   
    30   24   30 1   
    31   24   31 1   
    32   25   32 1   
    33   25   33 1   
    34   25   34 1   
    35   26   35 1   
    36   26   36 1   
    37   26   37 1   
    38   38   39 1   
    39   38   46 1   
    40   39   40 1   
    41   39   42 1   
    42   39   47 1   
    43   40   41 2   
    44   40   50 1   
    45   42   43 1   
    46   42   48 1   
    47   42   49 1   
    48   43   44 1   
    49   43   45 1   
    50   50   51 1   
    51   50   54 1   
    52   51   52 1   
    53   51   55 1   
    54   51   56 1   
    55   52   53 2   
    56   52   57 1   
    57   57   58 1   
    58   57   65 1   
    59   58   59 1   
    60   58   61 1   
    61   58   66 1   
    62   59   60 2   
    63   59   69 1   
    64   61   62 1   
    65   61   67 1   
    66   61   68 1   
    67   62   63 1   
    68   62   64 1   
    69   69   70 1   
    70   69   73 1   
    71   70   71 1   
    72   70   74 1   
    73   70   75 1   
    74   71   72 2   
    75   71   76 1   
    76   76   77 1   
    77   76   85 1   
    78   77   78 1   
    79   77   80 1   
    80   77   86 1   
    81   78   79 2   
    82   78   93 1   
    83   80   81 1   
    84   80   87 1   
    85   80   88 1   
    86   81   82 1   
    87   81   89 1   
    88   81   90 1   
    89   82   83 1   
    90   82   84 2   
    91   83   91 1   
    92   83   92 1   
    93   93   94 1   
    94   93  100 1   
    95   94   95 1   
    96   94   97 1   
    97   94  101 1   
    98   95   96 2   
    99   95  109 1   
   100   97   98 1   
   101   97   99 1   
   102   97  102 1   
   103   98  103 1   
   104   98  104 1   
   105   98  105 1   
   106   99  106 1   
   107   99  107 1   
   108   99  108 1   
   109  109  110 1   
   110  109  117 1   
   111  110  111 1   
   112  110  113 1   
   113  110  118 1   
   114  111  112 2   
   115  111  123 1   
   116  113  114 1   
   117  113  119 1   
   118  113  120 1   
   119  114  115 1   
   120  114  116 2   
   121  115  121 1   
   122  115  122 1   
   123  123  124 1   
   124  123  135 1   
   125  124  125 1   
   126  124  127 1   
   127  124  136 1   
   128  125  126 2   
   129  125  144 1   
   130  127  128 1   
   131  127  137 1   
   132  127  138 1   
   133  128  129 ar  
   134  128  130 ar  
   135  129  131 ar  
   136  129  139 1   
   137  130  132 ar  
   138  130  140 1   
   139  131  133 ar  
   140  131  141 1   
   141  132  133 ar  
   142  132  142 1   
   143  133  134 1   
   144  134  143 1   
   145  144  145 1   
   146  144  153 1   
   147  145  146 1   
   148  145  148 1   
   149  145  154 1   
   150  146  147 2   
   151  146  159 1   
   152  148  149 1   
   153  148  155 1   
   154  148  156 1   
   155  149  150 1   
   156  149  157 1   
   157  149  158 1   
   158  150  151 1   
   159  150  152 1   
   160  159  160 1   
   161  159  168 1   
   162  160  161 1   
   163  160  163 1   
   164  160  169 1   
   165  161  162 2   
   166  161  174 1   
   167  163  164 1   
   168  163  170 1   
   169  163  171 1   
   170  164  165 1   
   171  164  172 1   
   172  164  173 1   
   173  165  166 1   
   174  165  167 1   
   175  174  175 1   
   176  174  179 1   
   177  175  176 1   
   178  175  177 1   
   179  175  178 1   
   180  181  182 1   
   181  181  183 1   
   182  184  185 1   
   183  184  186 1   
   184  187  188 1   
   185  187  189 1   
@<TRIPOS>SUBSTRUCTURE
     1 MOL         1 TEMP              0 ****  ****    0 ROOT
