@<TRIPOS>MOLECULE
MOL
  201   193     1     0     0
SMALL
resp


@<TRIPOS>ATOM
      1 C1         -3.9580   -2.9020    2.3020 c3        1 MOL     -0.162999
      2 C2         -2.8710   -3.3050    1.3250 c         1 MOL      0.676443
      3 O1         -2.0980   -2.4300    0.9170 o         1 MOL     -0.587593
      4 H1         -4.9230   -3.2530    1.9360 hc        1 MOL      0.023898
      5 H2         -3.7550   -3.3480    3.2760 hc        1 MOL      0.023898
      6 H3         -3.9790   -1.8160    2.3970 hc        1 MOL      0.023898
      7 N1         -2.6910   -4.5690    1.0450 n         1 MOL     -0.606520
      8 C3         -1.6740   -5.1590    0.0820 c3        1 MOL      0.044151
      9 C4         -0.1900   -4.8340    0.5400 c         1 MOL      0.720636
     10 O2          0.7840   -4.9830   -0.2530 o         1 MOL     -0.587653
     11 C5         -1.9770   -4.8870   -1.3970 c3        1 MOL     -0.635060
     12 C6         -3.4640   -5.1730   -1.8390 c         1 MOL      0.860699
     13 O3         -3.8360   -4.6680   -2.9010 o         1 MOL     -0.685059
     14 O4         -4.2030   -5.8370   -1.0680 o         1 MOL     -0.685059
     15 H4         -3.3760   -5.1540    1.4920 hn        1 MOL      0.248104
     16 H5         -1.6510   -6.2500    0.1400 h1        1 MOL      0.114762
     17 H6         -1.3080   -5.2340   -2.1760 hc        1 MOL      0.203013
     18 H7         -1.9450   -3.8000   -1.3780 hc        1 MOL      0.203013
     19 N2         -0.0520   -4.3800    1.7640 n         1 MOL     -0.663746
     20 C7          1.2170   -3.9210    2.2690 c3        1 MOL     -0.064760
     21 C8          2.2790   -5.0170    2.5640 c         1 MOL      0.525150
     22 O5          1.8440   -6.1660    2.7690 o         1 MOL     -0.573440
     23 C9          1.0040   -3.0340    3.5270 c3        1 MOL      0.269005
     24 C10         0.2350   -3.5900    4.7060 c3        1 MOL      0.291631
     25 C11         0.4290   -1.7020    3.0770 c3        1 MOL      0.085716
     26 C12         0.0370   -2.5780    5.8610 c3        1 MOL     -0.106194
     27 H8         -0.8620   -4.1990    2.3250 hn        1 MOL      0.385452
     28 H9          1.5640   -3.2550    1.4770 h1        1 MOL      0.177801
     29 H10         1.9770   -2.8030    3.9510 hc        1 MOL     -0.008503
     30 H11         0.7040   -4.5100    5.0550 hc        1 MOL     -0.118375
     31 H12        -0.7680   -3.8720    4.3960 hc        1 MOL     -0.118375
     32 H13         0.9320   -1.3270    2.1850 hc        1 MOL     -0.015862
     33 H14        -0.6350   -1.7200    2.8620 hc        1 MOL     -0.015862
     34 H15         0.5830   -0.9700    3.8730 hc        1 MOL     -0.015862
     35 H16        -0.3950   -3.0110    6.7640 hc        1 MOL      0.003083
     36 H17         0.9310   -2.0630    6.1950 hc        1 MOL      0.003083
     37 H18        -0.6820   -1.8640    5.4520 hc        1 MOL      0.003083
     38 N3          3.5910   -4.7470    2.3920 n         1 MOL     -0.461584
     39 C13         4.1940   -3.4570    2.0940 c3        1 MOL      0.043603
     40 C14         4.4410   -3.2410    0.5760 c         1 MOL      0.412313
     41 O6          4.6570   -2.1100    0.1970 o         1 MOL     -0.402717
     42 C15         5.5000   -3.4150    2.8980 c3        1 MOL     -0.279582
     43 C16         5.1920   -3.5410    4.4230 c         1 MOL      0.780171
     44 O7          4.1580   -3.0330    4.9380 o         1 MOL     -0.688841
     45 O8          6.0410   -4.0040    5.1590 o         1 MOL     -0.688841
     46 H19         4.2100   -5.5430    2.4160 hn        1 MOL      0.300623
     47 H20         3.5730   -2.6540    2.4840 h1        1 MOL     -0.085177
     48 H21         6.0540   -2.5090    2.6530 hc        1 MOL      0.063678
     49 H22         6.1790   -4.1890    2.5260 hc        1 MOL      0.063678
     50 N4          4.3720   -4.2340   -0.2090 n         1 MOL     -0.115980
     51 C17         4.6350   -4.2350   -1.6070 c3        1 MOL     -0.307454
     52 C18         6.1030   -3.7400   -1.9680 c         1 MOL      0.586584
     53 O9          7.0390   -4.4420   -1.7590 o         1 MOL     -0.597896
     54 H23         4.3900   -5.1680    0.1680 hn        1 MOL      0.223601
     55 H24         3.9500   -3.4480   -1.9170 h1        1 MOL      0.117112
     56 H25         4.4410   -5.2350   -2.0110 h1        1 MOL      0.117112
     57 N5          6.2060   -2.5770   -2.5710 n         1 MOL     -0.412036
     58 C19         7.4670   -1.9350   -3.0170 c3        1 MOL      0.042814
     59 C20         8.0640   -1.0520   -1.8760 c         1 MOL      0.380281
     60 O10         9.1400   -0.4220   -2.0290 o         1 MOL     -0.552302
     61 C21         7.1350   -1.0780   -4.2390 c3        1 MOL     -0.163395
     62 C22         6.1420    0.0620   -4.0840 c         1 MOL      0.785782
     63 O11         5.3320   -0.0760   -3.1640 o         1 MOL     -0.725723
     64 O12         6.1230    0.9200   -4.9520 o         1 MOL     -0.725723
     65 H26         5.4720   -1.8910   -2.6470 hn        1 MOL      0.280595
     66 H27         8.2980   -2.5840   -3.2870 h1        1 MOL      0.084372
     67 H28         6.6600   -1.6750   -5.0130 hc        1 MOL      0.009973
     68 H29         8.0420   -0.6420   -4.6520 hc        1 MOL      0.009973
     69 N6          7.4610   -1.0550   -0.6900 n         1 MOL     -0.036718
     70 C23         7.8970   -0.5870    0.5800 c3        1 MOL     -0.467473
     71 C24         7.6400    0.8950    0.9800 c         1 MOL      0.539806
     72 O13         7.9350    1.2580    2.0970 o         1 MOL     -0.547429
     73 H30         6.5050   -1.3730   -0.6490 hn        1 MOL      0.118304
     74 H31         8.9540   -0.8430    0.6610 h1        1 MOL      0.174959
     75 H32         7.4920   -1.1790    1.4110 h1        1 MOL      0.174959
     76 N7          7.0410    1.6480    0.0380 n         1 MOL     -0.113957
     77 C25         6.5190    3.0410    0.1290 c3        1 MOL     -0.112821
     78 C26         5.3940    3.3520    1.1520 c         1 MOL      0.565484
     79 O14         5.1930    4.4310    1.6860 o         1 MOL     -0.506781
     80 C27         7.7320    3.9800    0.2700 c3        1 MOL      0.194943
     81 C28         8.7980    3.8580   -0.8790 c3        1 MOL     -0.090022
     82 C29        10.1000    4.6590   -0.5910 c         1 MOL      0.582609
     83 N8         11.1820    3.9300   -0.4110 n         1 MOL     -0.742651
     84 O15        10.1330    5.8940   -0.7080 o         1 MOL     -0.582063
     85 H33         6.7830    1.1180   -0.7870 hn        1 MOL      0.145096
     86 H34         6.2010    3.4230   -0.8400 h1        1 MOL      0.108047
     87 H35         8.2000    3.8350    1.2470 hc        1 MOL     -0.046343
     88 H36         7.3730    5.0040    0.2740 hc        1 MOL     -0.046343
     89 H37         8.4080    4.1790   -1.8450 hc        1 MOL      0.020824
     90 H38         9.0960    2.8140   -0.9670 hc        1 MOL      0.020824
     91 H39        11.0700    2.9290   -0.2930 hn        1 MOL      0.351456
     92 H40        12.0640    4.4150   -0.4170 hn        1 MOL      0.351456
     93 N9          4.5060    2.2960    1.3440 n         1 MOL     -0.473750
     94 C30         3.3270    2.3150    2.3160 c3        1 MOL     -0.067068
     95 C31         1.9700    1.8680    1.6920 c         1 MOL      0.497112
     96 O16         0.8980    1.7930    2.3180 o         1 MOL     -0.551491
     97 C32         3.4810    1.4270    3.5120 c3        1 MOL      0.205124
     98 C33         3.6330   -0.0230    3.1880 c3        1 MOL     -0.404196
     99 C34         4.7140    1.7970    4.2840 c3        1 MOL     -0.404196
    100 H41         4.6570    1.5740    0.6540 hn        1 MOL      0.252142
    101 H42         3.2880    3.3330    2.7150 h1        1 MOL      0.132365
    102 H43         2.6800    1.4930    4.2450 hc        1 MOL      0.007265
    103 H44         2.6540   -0.2710    2.7900 hc        1 MOL      0.118497
    104 H45         4.4720   -0.2030    2.5160 hc        1 MOL      0.118497
    105 H46         3.7940   -0.5210    4.1470 hc        1 MOL      0.118497
    106 H47         5.5790    1.3590    3.7910 hc        1 MOL      0.118497
    107 H48         4.7260    2.8900    4.2950 hc        1 MOL      0.118497
    108 H49         4.6040    1.3850    5.2850 hc        1 MOL      0.118497
    109 N10         1.9460    1.4600    0.3910 n         1 MOL     -0.464453
    110 C35         0.6760    1.2430   -0.3780 c3        1 MOL     -0.026162
    111 C36         0.0690    2.6010   -0.7680 c         1 MOL      0.705192
    112 O17         0.8530    3.5200   -0.9550 o         1 MOL     -0.516709
    113 C37         0.8870    0.3720   -1.6680 c3        1 MOL     -0.036088
    114 C38         1.3230   -1.0040   -1.4350 c         1 MOL      0.598352
    115 N11         0.6540   -1.9050   -0.6880 n         1 MOL     -0.847272
    116 O18         2.3700   -1.3850   -1.8780 o         1 MOL     -0.484244
    117 H50         2.7680    1.3000   -0.1730 hn        1 MOL      0.301400
    118 H51         0.0050    0.6910    0.2680 h1        1 MOL      0.052724
    119 H52         1.6780    0.7120   -2.3420 hc        1 MOL      0.037326
    120 H53         0.0570    0.4060   -2.3890 hc        1 MOL      0.037326
    121 H54        -0.2570   -1.6940   -0.3150 hn        1 MOL      0.359739
    122 H55         0.9630   -2.8640   -0.6970 hn        1 MOL      0.359739
    123 N12        -1.2200    2.7430   -0.9950 n         1 MOL     -0.560504
    124 C39        -1.9410    3.9780   -1.2120 c3        1 MOL      0.042828
    125 C40        -3.2870    3.9850   -0.6080 c         1 MOL      0.612811
    126 O19        -4.1530    3.1970   -1.0240 o         1 MOL     -0.538927
    127 C41        -2.1050    4.2800   -2.6470 c3        1 MOL     -0.043724
    128 C42        -0.8720    4.5720   -3.4670 ca        1 MOL     -0.072339
    129 C43        -0.2200    3.4630   -4.1280 ca        1 MOL     -0.105832
    130 C44        -0.3670    5.8600   -3.5090 ca        1 MOL     -0.105832
    131 C45         0.9750    3.7060   -4.8230 ca        1 MOL     -0.327004
    132 C46         0.8270    6.0480   -4.2820 ca        1 MOL     -0.327004
    133 C47         1.5030    4.9720   -4.8250 ca        1 MOL      0.467032
    134 O20         2.5860    5.2240   -5.5870 oh        1 MOL     -0.561723
    135 H56        -1.7380    1.8790   -0.9090 hn        1 MOL      0.285420
    136 H57        -1.3890    4.8070   -0.7760 h1        1 MOL      0.100323
    137 H58        -2.7420    5.1540   -2.8080 hc        1 MOL      0.054123
    138 H59        -2.7310    3.5260   -3.1260 hc        1 MOL      0.054123
    139 H60        -0.6420    2.4660   -4.0770 ha        1 MOL      0.132467
    140 H61        -0.7700    6.6710   -2.9240 ha        1 MOL      0.132467
    141 H62         1.4980    2.9320   -5.3710 ha        1 MOL      0.153767
    142 H63         1.2490    7.0330   -4.4010 ha        1 MOL      0.153767
    143 H64         2.9010    4.3770   -5.9080 ho        1 MOL      0.394089
    144 N13        -3.4500    4.9010    0.3710 n         1 MOL     -0.564692
    145 C48        -4.8110    5.0380    1.0170 c3        1 MOL      0.078333
    146 C49        -5.8860    5.2900   -0.0180 c         1 MOL      0.558301
    147 O21        -5.7670    6.1960   -0.8580 o         1 MOL     -0.559103
    148 C50        -4.7300    6.2560    1.9860 c3        1 MOL      0.101544
    149 C51        -5.8920    6.1920    2.9430 c3        1 MOL     -0.012171
    150 C52        -6.0110    7.5170    3.6820 c         1 MOL      0.620505
    151 O22        -5.2380    7.7560    4.6420 o         1 MOL     -0.656727
    152 O23        -6.8040    8.3840    3.2230 o         1 MOL     -0.656727
    153 H65        -2.7550    5.6230    0.5150 hn        1 MOL      0.282366
    154 H66        -4.9020    4.0690    1.4980 h1        1 MOL      0.048954
    155 H67        -4.7450    7.2060    1.4480 hc        1 MOL     -0.000999
    156 H68        -3.8610    6.2600    2.6480 hc        1 MOL     -0.000999
    157 H69        -5.5200    5.5140    3.7120 hc        1 MOL     -0.034591
    158 H70        -6.7650    5.9690    2.3420 hc        1 MOL     -0.034591
    159 N14        -7.0390    4.5490    0.0470 n         1 MOL     -0.384641
    160 C53        -7.3030    3.3300    0.8640 c3        1 MOL     -0.085436
    161 C54        -7.9090    3.6040    2.2830 c         1 MOL      0.525814
    162 O24        -8.7510    4.4870    2.4060 o         1 MOL     -0.509704
    163 C55        -8.3500    2.4710    0.0190 c3        1 MOL     -0.079566
    164 C56        -7.6160    1.6660   -1.0620 c3        1 MOL     -0.244926
    165 C57        -8.5010    1.1560   -2.2520 c         1 MOL      0.682818
    166 O25        -8.9900    1.9080   -3.1220 o         1 MOL     -0.679640
    167 O26        -8.6970   -0.0640   -2.3900 o         1 MOL     -0.679640
    168 H71        -7.8070    4.8770   -0.5300 hn        1 MOL      0.303503
    169 H72        -6.3970    2.7220    0.8980 h1        1 MOL      0.083306
    170 H73        -8.9890    3.2200   -0.4540 hc        1 MOL      0.038564
    171 H74        -8.8920    1.7910    0.6710 hc        1 MOL      0.038564
    172 H75        -7.0770    0.8890   -0.5320 hc        1 MOL      0.070622
    173 H76        -6.8820    2.3270   -1.5150 hc        1 MOL      0.070622
    174 N15        -7.4300    2.8460    3.2890 n         1 MOL     -0.312756
    175 C58        -7.9350    2.6620    4.6640 c3        1 MOL     -0.240752
    176 H77        -7.4170    3.3470    5.3350 h1        1 MOL      0.105789
    177 H78        -9.0050    2.8690    4.6900 h1        1 MOL      0.105789
    178 H79        -7.7540    1.6360    4.9840 h1        1 MOL      0.105789
    179 H80        -6.6070    2.3000    3.0720 hn        1 MOL      0.253896
    180 Ca1        -6.5180   -4.8150   -1.5010 Ca        1 MOL      1.663070
    181 O27        -4.9420   -2.6210   -1.5960 oh        1 MOL     -0.772047
    182 H81        -4.2360   -2.9860   -2.1320 ho        1 MOL      0.363970
    183 H82        -5.2830   -1.8890   -2.1220 ho        1 MOL      0.363970
    184 O28        -6.1200   -6.6920   -3.5370 oh        1 MOL     -0.772047
    185 H83        -6.7070   -7.0510   -4.2120 ho        1 MOL      0.363970
    186 H84        -5.3280   -6.4510   -4.0290 ho        1 MOL      0.363970
    187 O29        -8.2920   -2.8520   -1.6450 oh        1 MOL     -0.772047
    188 H85        -8.4810   -1.9130   -1.5440 ho        1 MOL      0.363970
    189 H86        -9.0720   -3.2150   -2.0690 ho        1 MOL      0.363970
    190 O30        -6.5860   -7.1330   -0.4180 oh        1 MOL     -0.772047
    191 H87        -7.1130   -7.8200   -0.0120 ho        1 MOL      0.363970
    192 H88        -5.6920   -7.3170   -0.1340 ho        1 MOL      0.363970
    193 O31        -6.9640   -3.6620   -3.8810 oh        1 MOL     -0.772047
    194 H89        -6.8640   -3.8340   -4.8110 ho        1 MOL      0.363970
    195 H90        -6.9070   -2.7100   -3.7980 ho        1 MOL      0.363970
    196 O32        -8.9750   -5.6250   -2.1880 oh        1 MOL     -0.772047
    197 H91        -9.5320   -6.2880   -2.6170 ho        1 MOL      0.363970
    198 H92        -9.2520   -5.6410   -1.2680 ho        1 MOL      0.363970
    199 O33        -8.7320   -5.0540    0.5100 oh        1 MOL     -0.772047
    200 H93        -8.6950   -5.9810    0.7750 ho        1 MOL      0.363970
    201 H94        -9.2570   -4.6320    1.1840 ho        1 MOL      0.363970
@<TRIPOS>BOND
     1    1    2 1   
     2    1    4 1   
     3    1    5 1   
     4    1    6 1   
     5    2    3 2   
     6    2    7 1   
     7    7    8 1   
     8    7   15 1   
     9    8    9 1   
    10    8   11 1   
    11    8   16 1   
    12    9   10 2   
    13    9   19 1   
    14   11   12 1   
    15   11   17 1   
    16   11   18 1   
    17   12   13 1   
    18   12   14 1   
    19   19   20 1   
    20   19   27 1   
    21   20   21 1   
    22   20   23 1   
    23   20   28 1   
    24   21   22 2   
    25   21   38 1   
    26   23   24 1   
    27   23   25 1   
    28   23   29 1   
    29   24   26 1   
    30   24   30 1   
    31   24   31 1   
    32   25   32 1   
    33   25   33 1   
    34   25   34 1   
    35   26   35 1   
    36   26   36 1   
    37   26   37 1   
    38   38   39 1   
    39   38   46 1   
    40   39   40 1   
    41   39   42 1   
    42   39   47 1   
    43   40   41 2   
    44   40   50 1   
    45   42   43 1   
    46   42   48 1   
    47   42   49 1   
    48   43   44 1   
    49   43   45 1   
    50   50   51 1   
    51   50   54 1   
    52   51   52 1   
    53   51   55 1   
    54   51   56 1   
    55   52   53 2   
    56   52   57 1   
    57   57   58 1   
    58   57   65 1   
    59   58   59 1   
    60   58   61 1   
    61   58   66 1   
    62   59   60 2   
    63   59   69 1   
    64   61   62 1   
    65   61   67 1   
    66   61   68 1   
    67   62   63 1   
    68   62   64 1   
    69   69   70 1   
    70   69   73 1   
    71   70   71 1   
    72   70   74 1   
    73   70   75 1   
    74   71   72 2   
    75   71   76 1   
    76   76   77 1   
    77   76   85 1   
    78   77   78 1   
    79   77   80 1   
    80   77   86 1   
    81   78   79 2   
    82   78   93 1   
    83   80   81 1   
    84   80   87 1   
    85   80   88 1   
    86   81   82 1   
    87   81   89 1   
    88   81   90 1   
    89   82   83 1   
    90   82   84 2   
    91   83   91 1   
    92   83   92 1   
    93   93   94 1   
    94   93  100 1   
    95   94   95 1   
    96   94   97 1   
    97   94  101 1   
    98   95   96 2   
    99   95  109 1   
   100   97   98 1   
   101   97   99 1   
   102   97  102 1   
   103   98  103 1   
   104   98  104 1   
   105   98  105 1   
   106   99  106 1   
   107   99  107 1   
   108   99  108 1   
   109  109  110 1   
   110  109  117 1   
   111  110  111 1   
   112  110  113 1   
   113  110  118 1   
   114  111  112 2   
   115  111  123 1   
   116  113  114 1   
   117  113  119 1   
   118  113  120 1   
   119  114  115 1   
   120  114  116 2   
   121  115  121 1   
   122  115  122 1   
   123  123  124 1   
   124  123  135 1   
   125  124  125 1   
   126  124  127 1   
   127  124  136 1   
   128  125  126 2   
   129  125  144 1   
   130  127  128 1   
   131  127  137 1   
   132  127  138 1   
   133  128  129 ar  
   134  128  130 ar  
   135  129  131 ar  
   136  129  139 1   
   137  130  132 ar  
   138  130  140 1   
   139  131  133 ar  
   140  131  141 1   
   141  132  133 ar  
   142  132  142 1   
   143  133  134 1   
   144  134  143 1   
   145  144  145 1   
   146  144  153 1   
   147  145  146 1   
   148  145  148 1   
   149  145  154 1   
   150  146  147 2   
   151  146  159 1   
   152  148  149 1   
   153  148  155 1   
   154  148  156 1   
   155  149  150 1   
   156  149  157 1   
   157  149  158 1   
   158  150  151 1   
   159  150  152 1   
   160  159  160 1   
   161  159  168 1   
   162  160  161 1   
   163  160  163 1   
   164  160  169 1   
   165  161  162 2   
   166  161  174 1   
   167  163  164 1   
   168  163  170 1   
   169  163  171 1   
   170  164  165 1   
   171  164  172 1   
   172  164  173 1   
   173  165  166 1   
   174  165  167 1   
   175  174  175 1   
   176  174  179 1   
   177  175  176 1   
   178  175  177 1   
   179  175  178 1   
   180  181  182 1   
   181  181  183 1   
   182  184  185 1   
   183  184  186 1   
   184  187  188 1   
   185  187  189 1   
   186  190  191 1   
   187  190  192 1   
   188  193  194 1   
   189  193  195 1   
   190  196  197 1   
   191  196  198 1   
   192  199  200 1   
   193  199  201 1   
@<TRIPOS>SUBSTRUCTURE
     1 MOL         1 TEMP              0 ****  ****    0 ROOT
