@<TRIPOS>MOLECULE
MOL
  178   175     1     0     0
SMALL
resp


@<TRIPOS>ATOM
      1 C1        -11.0110   -6.6310   -2.2250 c3        1 MOL     -0.308961
      2 C2         -9.9850   -5.9210   -1.3710 c         1 MOL      0.713628
      3 O1         -8.8850   -6.3610   -1.1720 o         1 MOL     -0.579886
      4 H1        -10.5900   -6.8230   -3.2120 hc        1 MOL      0.068862
      5 H2        -11.2830   -7.5760   -1.7560 hc        1 MOL      0.068862
      6 H3        -11.8970   -6.0040   -2.3250 hc        1 MOL      0.068862
      7 N1        -10.3070   -4.7090   -0.8550 n         1 MOL     -0.604604
      8 C3        -11.4790   -3.9670   -0.9340 c3        1 MOL      0.004470
      9 C4        -11.8630   -3.3100    0.4000 c         1 MOL      0.566062
     10 O2        -12.9610   -2.8640    0.4760 o         1 MOL     -0.578812
     11 C5        -11.4270   -2.8610   -1.9740 c3        1 MOL     -0.164441
     12 C6        -10.3490   -1.8530   -1.7170 c         1 MOL      0.994983
     13 O3         -9.6040   -1.5720   -2.6380 o         1 MOL     -0.858314
     14 O4        -10.4060   -1.0360   -0.7720 o         1 MOL     -0.858314
     15 H4         -9.5500   -4.2180   -0.3970 hn        1 MOL      0.408320
     16 H5        -12.3220   -4.6280   -1.1060 h1        1 MOL      0.081561
     17 H6        -12.3750   -2.3540   -2.1390 hc        1 MOL      0.036444
     18 H7        -11.1970   -3.3290   -2.9340 hc        1 MOL      0.036444
     19 N2        -11.0360   -3.3690    1.4630 n         1 MOL     -0.518206
     20 C7        -11.3210   -2.7560    2.7580 c3        1 MOL      0.465825
     21 C8        -10.0840   -1.9800    3.3150 c         1 MOL      0.475884
     22 O5         -9.7290   -2.1270    4.4980 o         1 MOL     -0.549531
     23 C9        -12.0120   -3.6960    3.7140 c3        1 MOL     -0.391790
     24 H8        -10.1190   -3.7770    1.3640 hn        1 MOL      0.260675
     25 H9        -12.0290   -1.9340    2.6660 h1        1 MOL     -0.018706
     26 H10       -12.2300   -3.1180    4.5970 hc        1 MOL      0.083683
     27 H11       -12.9360   -4.0790    3.2870 hc        1 MOL      0.083683
     28 H12       -11.3630   -4.5540    3.9170 hc        1 MOL      0.083683
     29 N3         -9.4260   -1.1950    2.4550 n         1 MOL     -0.523642
     30 C10        -7.9650   -0.8420    2.5780 c3        1 MOL      0.213102
     31 C11        -7.7170    0.5970    1.8980 c         1 MOL      0.374450
     32 O6         -8.4010    0.9880    0.9730 o         1 MOL     -0.515578
     33 C12        -7.0800   -1.9000    1.8980 c3        1 MOL     -0.365443
     34 C13        -7.4940   -2.3580    0.5180 c         1 MOL      0.940214
     35 O7         -7.1180   -1.5560   -0.4430 o         1 MOL     -0.778948
     36 O8         -8.2200   -3.3480    0.3210 o         1 MOL     -0.778948
     37 H13        -9.7660   -1.2060    1.4960 hn        1 MOL      0.247587
     38 H14        -7.7610   -0.7990    3.6500 h1        1 MOL      0.043401
     39 H15        -7.0650   -2.7390    2.5940 hc        1 MOL      0.088410
     40 H16        -6.0540   -1.5580    1.7770 hc        1 MOL      0.088410
     41 N4         -6.6250    1.2850    2.3250 n         1 MOL     -0.298361
     42 C14        -6.1330    2.5190    1.7590 c3        1 MOL     -0.032945
     43 C15        -5.7550    2.4550    0.3010 c         1 MOL      0.419986
     44 O9         -6.0580    1.4870   -0.4320 o         1 MOL     -0.442946
     45 H17        -6.1160    0.9480    3.1330 hn        1 MOL      0.258059
     46 H18        -5.3690    2.9810    2.3890 h1        1 MOL      0.071610
     47 H19        -6.9780    3.1680    1.9480 h1        1 MOL      0.071610
     48 N5         -4.9980    3.4650   -0.1850 n         1 MOL     -0.424168
     49 C16        -4.5820    3.6650   -1.5460 c3        1 MOL      0.138976
     50 C17        -3.1520    4.1830   -1.6950 c         1 MOL      0.540928
     51 O10        -2.7350    4.5340   -2.8140 o         1 MOL     -0.542448
     52 C18        -5.5710    4.4970   -2.3870 c3        1 MOL     -0.501519
     53 C19        -6.9270    4.0680   -2.0630 c         1 MOL      0.816873
     54 N6         -7.7010    4.8950   -1.2920 n         1 MOL     -0.865699
     55 O11        -7.4230    2.9820   -2.3790 o         1 MOL     -0.664508
     56 H20        -4.6920    4.1740    0.4670 hn        1 MOL      0.237094
     57 H21        -4.5670    2.6910   -2.0270 h1        1 MOL      0.082861
     58 H22        -5.4530    4.2480   -3.4430 hc        1 MOL      0.149519
     59 H23        -5.4730    5.5590   -2.1830 hc        1 MOL      0.149519
     60 H24        -7.2840    5.6760   -0.8100 hn        1 MOL      0.365469
     61 H25        -8.6380    4.5970   -1.0550 hn        1 MOL      0.365469
     62 N7         -2.3920    4.2500   -0.6270 n         1 MOL     -0.393361
     63 C20        -0.9520    4.5270   -0.4510 c3        1 MOL      0.028217
     64 C21        -0.5570    4.6240    1.0030 c         1 MOL      0.656753
     65 O12        -1.3970    4.3060    1.8090 o         1 MOL     -0.595059
     66 H26        -2.8360    3.9120    0.2160 hn        1 MOL      0.235595
     67 H27        -0.6590    5.4910   -0.8770 h1        1 MOL      0.073972
     68 H28        -0.3030    3.7770   -0.8940 h1        1 MOL      0.073972
     69 N8          0.6400    5.0110    1.4120 n         1 MOL     -0.535103
     70 C22         1.7850    5.4760    0.6790 c3        1 MOL     -0.111300
     71 C23         3.0150    4.5770    0.7380 c         1 MOL      0.486992
     72 O13         4.0940    5.0120    0.2310 o         1 MOL     -0.528626
     73 C24         2.0060    6.9150    1.0440 c3        1 MOL      0.274346
     74 C25         0.8050    7.8530    0.7630 c3        1 MOL     -0.208262
     75 O14         2.2960    7.0350    2.4600 oh        1 MOL     -0.636698
     76 H29         0.7300    5.1390    2.4110 hn        1 MOL      0.364794
     77 H30         1.4830    5.4680   -0.3670 h1        1 MOL      0.143705
     78 H31         2.8840    7.3630    0.5750 h1        1 MOL      0.047121
     79 H32         2.7910    7.8430    2.6170 ho        1 MOL      0.416181
     80 H33         0.0080    7.7480    1.4990 hc        1 MOL      0.046005
     81 H34         1.1270    8.8900    0.8630 hc        1 MOL      0.046005
     82 H35         0.3860    7.8340   -0.2380 hc        1 MOL      0.046005
     83 N9          2.8130    3.2760    1.0360 n         1 MOL     -0.331894
     84 C26         3.8710    2.2410    1.1720 c3        1 MOL     -0.019671
     85 C27         3.9040    1.2820   -0.0320 c         1 MOL      0.573115
     86 O15         2.8800    0.8680   -0.5500 o         1 MOL     -0.588310
     87 C28         3.5570    1.4950    2.4940 c3        1 MOL      0.012625
     88 C29         3.3250    2.5300    3.6600 c3        1 MOL      0.245960
     89 C30         4.7090    0.4930    2.6640 c3        1 MOL      0.128955
     90 C31         3.1710    1.9410    5.0780 c3        1 MOL     -0.328498
     91 H36         1.9060    2.8380    1.1470 hn        1 MOL      0.238374
     92 H37         4.8220    2.7700    1.2370 h1        1 MOL      0.063690
     93 H38         2.6660    0.8700    2.4450 hc        1 MOL      0.024299
     94 H39         2.4270    3.1320    3.5730 hc        1 MOL     -0.066535
     95 H40         4.2370    3.1230    3.6920 hc        1 MOL     -0.066535
     96 H41         4.7770   -0.1410    1.7750 hc        1 MOL     -0.033712
     97 H42         5.6780    0.9320    2.8460 hc        1 MOL     -0.033712
     98 H43         4.6130   -0.2540    3.4500 hc        1 MOL     -0.033712
     99 H44         2.9660    2.7900    5.7370 hc        1 MOL      0.069644
    100 H45         2.4440    1.1490    5.2440 hc        1 MOL      0.069644
    101 H46         4.1040    1.4280    5.2920 hc        1 MOL      0.069644
    102 N10         5.0450    0.9720   -0.5920 n         1 MOL     -0.294389
    103 C32         6.3300    1.5100   -0.2960 c3        1 MOL     -0.007519
    104 C33         7.4420    0.4770   -0.4460 c         1 MOL      0.467858
    105 O16         7.3360   -0.4840   -1.1880 o         1 MOL     -0.503660
    106 C34         6.7380    2.6470   -1.1450 c3        1 MOL     -0.133789
    107 C35         6.5650    2.4990   -2.7130 c         1 MOL      0.669594
    108 O17         7.4100    3.0100   -3.4840 o         1 MOL     -0.698685
    109 O18         5.4150    2.2470   -3.1750 o         1 MOL     -0.698685
    110 H47         4.8750    0.4910   -1.4570 hn        1 MOL      0.265275
    111 H48         6.3840    1.9310    0.7080 h1        1 MOL      0.070611
    112 H49         7.7140    3.0260   -0.8600 hc        1 MOL      0.018815
    113 H50         6.1120    3.4630   -0.7690 hc        1 MOL      0.018815
    114 N11         8.5960    0.6770    0.2460 n         1 MOL     -0.451716
    115 C36         9.8430   -0.1210    0.0330 c3        1 MOL      0.375375
    116 C37        10.1730   -1.0780    1.2200 c         1 MOL      0.212154
    117 O19         9.8860   -0.7000    2.4170 o         1 MOL     -0.478227
    118 C38        11.0290    0.8990   -0.1320 c3        1 MOL     -0.271015
    119 C39        12.2640    0.3020   -0.6860 ca        1 MOL      0.297531
    120 C40        12.4320    0.3330   -2.0990 ca        1 MOL     -0.365475
    121 C41        13.2750   -0.3560    0.0510 ca        1 MOL     -0.365475
    122 C42        13.5980   -0.1630   -2.7710 ca        1 MOL      0.041620
    123 C43        14.3590   -0.9710   -0.6180 ca        1 MOL      0.041620
    124 C44        14.5480   -0.8860   -2.0140 ca        1 MOL     -0.278019
    125 H51         8.6350    1.3950    0.9570 hn        1 MOL      0.262147
    126 H52         9.6410   -0.6020   -0.9330 h1        1 MOL      0.075271
    127 H53        11.2240    1.2520    0.8820 hc        1 MOL      0.061581
    128 H54        10.7070    1.6490   -0.8560 hc        1 MOL      0.061581
    129 H55        11.6680    0.7870   -2.7090 ha        1 MOL      0.181771
    130 H56        13.1230   -0.5480    1.0980 ha        1 MOL      0.181771
    131 H57        13.6540   -0.1350   -3.8500 ha        1 MOL      0.081765
    132 H58        15.1650   -1.4120   -0.0450 ha        1 MOL      0.081765
    133 H59        15.3660   -1.3600   -2.5370 ha        1 MOL      0.130012
    134 N12        10.8070   -2.3050    0.9740 n         1 MOL     -0.091485
    135 C45        11.0230   -3.0340   -0.2550 c3        1 MOL      0.258928
    136 C46         9.6130   -3.2800   -0.9060 c         1 MOL      0.316871
    137 O20         9.3700   -3.0150   -2.0930 o         1 MOL     -0.537808
    138 C47        11.7650   -4.2970    0.1560 c3        1 MOL     -0.199449
    139 C48        12.4760   -3.9620    1.4530 c3        1 MOL     -0.036807
    140 C49        11.4440   -3.0120    2.0490 c3        1 MOL     -0.072541
    141 H60        11.6080   -2.3630   -0.8920 h1        1 MOL      0.006383
    142 H61        10.9970   -5.0450    0.3370 hc        1 MOL      0.063508
    143 H62        12.3500   -4.4450   -0.7440 hc        1 MOL      0.063508
    144 H63        12.5890   -4.8430    2.0860 hc        1 MOL      0.027274
    145 H64        13.4230   -3.4380    1.3330 hc        1 MOL      0.027274
    146 H65        10.7010   -3.5240    2.6630 h1        1 MOL      0.056088
    147 H66        11.9090   -2.2500    2.6760 h1        1 MOL      0.056088
    148 N13         8.6100   -3.7510   -0.1270 n         1 MOL     -0.292407
    149 C50         7.2420   -4.0490   -0.5020 c3        1 MOL      0.175467
    150 C51         7.1880   -5.2850   -1.4060 c         1 MOL      0.312918
    151 O21         7.2930   -6.4330   -1.0650 o         1 MOL     -0.557766
    152 C52         6.3510   -4.1930    0.7530 c3        1 MOL     -0.044915
    153 C53         6.0230   -2.8860    1.4980 c3        1 MOL     -0.167489
    154 C54         5.0910   -3.1210    2.7020 c         1 MOL      0.769009
    155 O22         3.8360   -3.0950    2.6330 o         1 MOL     -0.700147
    156 O23         5.5580   -3.5390    3.7800 o         1 MOL     -0.700147
    157 H67         8.8560   -4.1200    0.7810 hn        1 MOL      0.268675
    158 H68         6.8920   -3.1550   -1.0180 h1        1 MOL      0.098533
    159 H69         6.8770   -4.8740    1.4270 hc        1 MOL      0.028745
    160 H70         5.3770   -4.5370    0.4040 hc        1 MOL      0.028745
    161 H71         5.5310   -2.1890    0.8190 hc        1 MOL     -0.012988
    162 H72         6.8860   -2.2740    1.7810 hc        1 MOL     -0.012988
    163 N14         7.0410   -5.0430   -2.7170 n         1 MOL     -0.139061
    164 C55         6.7620   -3.9030   -3.4940 c3        1 MOL     -0.251010
    165 H73         6.9750   -4.1170   -4.5410 h1        1 MOL      0.097585
    166 H74         5.7100   -3.6370   -3.3860 h1        1 MOL      0.097585
    167 H75         7.3840   -3.0730   -3.1600 h1        1 MOL      0.097585
    168 H76         7.0800   -5.8540   -3.3140 hn        1 MOL      0.209895
    169 Ca1        -8.4200    0.6100   -1.6200 Ca        1 MOL      1.737653
    170 O24        -6.4130    0.1010   -3.2440 oh        1 MOL     -0.784516
    171 H77        -5.4840   -0.0360   -3.0600 ho        1 MOL      0.399763
    172 H78        -6.4340    0.4180   -4.1410 ho        1 MOL      0.399763
    173 O25       -10.1270    2.5480   -1.0930 oh        1 MOL     -0.784516
    174 H79       -10.9900    2.7840   -1.4290 ho        1 MOL      0.399763
    175 H80       -10.1050    2.9060   -0.2050 ho        1 MOL      0.399763
    176 O26        -9.3530    1.0550   -4.0470 oh        1 MOL     -0.784516
    177 H81        -9.9150    0.4230   -4.4960 ho        1 MOL      0.399763
    178 H82        -8.8790    1.5030   -4.7560 ho        1 MOL      0.399763
@<TRIPOS>BOND
     1    1    2 1   
     2    1    4 1   
     3    1    5 1   
     4    1    6 1   
     5    2    3 2   
     6    2    7 1   
     7    7    8 1   
     8    7   15 1   
     9    8    9 1   
    10    8   11 1   
    11    8   16 1   
    12    9   10 2   
    13    9   19 1   
    14   11   12 1   
    15   11   17 1   
    16   11   18 1   
    17   12   13 1   
    18   12   14 1   
    19   19   20 1   
    20   19   24 1   
    21   20   21 1   
    22   20   23 1   
    23   20   25 1   
    24   21   22 2   
    25   21   29 1   
    26   23   26 1   
    27   23   27 1   
    28   23   28 1   
    29   29   30 1   
    30   29   37 1   
    31   30   31 1   
    32   30   33 1   
    33   30   38 1   
    34   31   32 2   
    35   31   41 1   
    36   33   34 1   
    37   33   39 1   
    38   33   40 1   
    39   34   35 1   
    40   34   36 1   
    41   41   42 1   
    42   41   45 1   
    43   42   43 1   
    44   42   46 1   
    45   42   47 1   
    46   43   44 2   
    47   43   48 1   
    48   48   49 1   
    49   48   56 1   
    50   49   50 1   
    51   49   52 1   
    52   49   57 1   
    53   50   51 2   
    54   50   62 1   
    55   52   53 1   
    56   52   58 1   
    57   52   59 1   
    58   53   54 1   
    59   53   55 2   
    60   54   60 1   
    61   54   61 1   
    62   62   63 1   
    63   62   66 1   
    64   63   64 1   
    65   63   67 1   
    66   63   68 1   
    67   64   65 2   
    68   64   69 1   
    69   69   70 1   
    70   69   76 1   
    71   70   71 1   
    72   70   73 1   
    73   70   77 1   
    74   71   72 2   
    75   71   83 1   
    76   73   74 1   
    77   73   75 1   
    78   73   78 1   
    79   74   80 1   
    80   74   81 1   
    81   74   82 1   
    82   75   79 1   
    83   83   84 1   
    84   83   91 1   
    85   84   85 1   
    86   84   87 1   
    87   84   92 1   
    88   85   86 2   
    89   85  102 1   
    90   87   88 1   
    91   87   89 1   
    92   87   93 1   
    93   88   90 1   
    94   88   94 1   
    95   88   95 1   
    96   89   96 1   
    97   89   97 1   
    98   89   98 1   
    99   90   99 1   
   100   90  100 1   
   101   90  101 1   
   102  102  103 1   
   103  102  110 1   
   104  103  104 1   
   105  103  106 1   
   106  103  111 1   
   107  104  105 2   
   108  104  114 1   
   109  106  107 1   
   110  106  112 1   
   111  106  113 1   
   112  107  108 1   
   113  107  109 1   
   114  114  115 1   
   115  114  125 1   
   116  115  116 1   
   117  115  118 1   
   118  115  126 1   
   119  116  117 2   
   120  116  134 1   
   121  118  119 1   
   122  118  127 1   
   123  118  128 1   
   124  119  120 ar  
   125  119  121 ar  
   126  120  122 ar  
   127  120  129 1   
   128  121  123 ar  
   129  121  130 1   
   130  122  124 ar  
   131  122  131 1   
   132  123  124 ar  
   133  123  132 1   
   134  124  133 1   
   135  134  135 1   
   136  134  140 1   
   137  135  136 1   
   138  135  138 1   
   139  135  141 1   
   140  136  137 2   
   141  136  148 1   
   142  138  139 1   
   143  138  142 1   
   144  138  143 1   
   145  139  140 1   
   146  139  144 1   
   147  139  145 1   
   148  140  146 1   
   149  140  147 1   
   150  148  149 1   
   151  148  157 1   
   152  149  150 1   
   153  149  152 1   
   154  149  158 1   
   155  150  151 2   
   156  150  163 1   
   157  152  153 1   
   158  152  159 1   
   159  152  160 1   
   160  153  154 1   
   161  153  161 1   
   162  153  162 1   
   163  154  155 1   
   164  154  156 1   
   165  163  164 1   
   166  163  168 1   
   167  164  165 1   
   168  164  166 1   
   169  164  167 1   
   170  170  171 1   
   171  170  172 1   
   172  173  174 1   
   173  173  175 1   
   174  176  177 1   
   175  176  178 1   
@<TRIPOS>SUBSTRUCTURE
     1 MOL         1 TEMP              0 ****  ****    0 ROOT
