@<TRIPOS>MOLECULE
MOL
  192   187     1     0     0
SMALL
resp


@<TRIPOS>ATOM
      1 C1         -6.7420   -2.8040    3.2890 c3        1 MOL     -0.002208
      2 C2         -5.5860   -2.5760    2.3310 c         1 MOL      0.479325
      3 O1         -5.0780   -1.4970    2.3310 o         1 MOL     -0.477936
      4 H1         -6.5910   -3.7410    3.8230 hc        1 MOL     -0.022575
      5 H2         -6.7900   -1.9820    4.0040 hc        1 MOL     -0.022575
      6 H3         -7.6750   -2.8520    2.7270 hc        1 MOL     -0.022575
      7 N1         -5.1750   -3.5040    1.4410 n         1 MOL     -0.418348
      8 C3         -4.0110   -3.3700    0.5750 c3        1 MOL      0.098835
      9 C4         -2.6400   -3.0300    1.1900 c         1 MOL      0.633256
     10 O2         -1.8690   -2.1750    0.7570 o         1 MOL     -0.580592
     11 C5         -4.4120   -2.5340   -0.6460 c3        1 MOL     -0.481491
     12 C6         -5.7180   -2.9520   -1.3420 c         1 MOL      0.602130
     13 O3         -5.9210   -4.1460   -1.6520 o         1 MOL     -0.623467
     14 O4         -6.6180   -2.1180   -1.6670 o         1 MOL     -0.623467
     15 H4         -5.6510   -4.3860    1.4070 hn        1 MOL      0.261651
     16 H5         -3.8670   -4.4040    0.2500 h1        1 MOL      0.034782
     17 H6         -3.6190   -2.5790   -1.3980 hc        1 MOL      0.172028
     18 H7         -4.5330   -1.5080   -0.3020 hc        1 MOL      0.172028
     19 N2         -2.3260   -3.6830    2.2870 n         1 MOL     -0.473036
     20 C7         -0.9990   -3.6400    2.9380 c3        1 MOL     -0.032337
     21 C8         -0.5520   -5.1080    2.9430 c         1 MOL      0.436877
     22 O5         -1.1210   -6.0230    3.5760 o         1 MOL     -0.583338
     23 C9         -1.2000   -3.0720    4.4090 c3        1 MOL      0.302927
     24 C10        -1.7180   -1.6270    4.5790 c3        1 MOL     -0.020769
     25 C11         0.1130   -3.1370    5.1990 c3        1 MOL     -0.421503
     26 C12        -2.7130   -1.5650    5.6930 c3        1 MOL     -0.061540
     27 H8         -3.0450   -4.2830    2.6580 hn        1 MOL      0.234467
     28 H9         -0.3430   -2.9380    2.4320 h1        1 MOL      0.204025
     29 H10        -1.8550   -3.7490    4.9630 hc        1 MOL     -0.035449
     30 H11        -2.2320   -1.3650    3.6610 hc        1 MOL      0.030559
     31 H12        -0.9810   -0.8490    4.7860 hc        1 MOL      0.030559
     32 H13         0.3990   -4.1950    5.2650 hc        1 MOL      0.088727
     33 H14         0.7780   -2.5690    4.5370 hc        1 MOL      0.088727
     34 H15        -0.0060   -2.7600    6.2080 hc        1 MOL      0.088727
     35 H16        -3.2940   -2.4860    5.6340 hc        1 MOL      0.008174
     36 H17        -2.2300   -1.5700    6.6740 hc        1 MOL      0.008174
     37 H18        -3.3740   -0.6950    5.6630 hc        1 MOL      0.008174
     38 N3          0.4750   -5.4400    2.2110 n         1 MOL     -0.317996
     39 C13         1.4250   -4.6300    1.3000 c3        1 MOL     -0.000839
     40 C14         1.9510   -5.5150    0.1260 c         1 MOL      0.505625
     41 O6          1.8080   -6.7510    0.1840 o         1 MOL     -0.574358
     42 C15         2.6210   -4.0790    2.1010 c3        1 MOL     -0.076491
     43 C16         3.3780   -3.1330    1.1900 c         1 MOL      0.623811
     44 O7          4.4470   -3.5120    0.6350 o         1 MOL     -0.603698
     45 O8          2.9640   -1.9440    1.0880 o         1 MOL     -0.603698
     46 H19         0.6580   -6.4380    2.2290 hn        1 MOL      0.262170
     47 H20         0.9470   -3.7350    0.9000 h1        1 MOL      0.029998
     48 H21         3.2780   -4.9250    2.3160 hc        1 MOL      0.001110
     49 H22         2.2760   -3.6400    3.0420 hc        1 MOL      0.001110
     50 N4          2.5120   -4.9930   -0.8900 n         1 MOL     -0.226251
     51 C17         2.9060   -5.6020   -2.1820 c3        1 MOL     -0.295265
     52 C18         4.0020   -4.8490   -3.0010 c         1 MOL      0.651379
     53 O9          4.2540   -5.2800   -4.1170 o         1 MOL     -0.587858
     54 H23         2.7410   -4.0250   -0.7520 hn        1 MOL      0.202956
     55 H24         2.0040   -5.6550   -2.7960 h1        1 MOL      0.138963
     56 H25         3.3540   -6.5930   -2.1000 h1        1 MOL      0.138963
     57 N5          4.5740   -3.7230   -2.5130 n         1 MOL     -0.568796
     58 C19         5.6880   -3.0180   -3.1730 c3        1 MOL      0.229288
     59 C20         6.8800   -2.6810   -2.1760 c         1 MOL      0.192726
     60 O10         8.0380   -2.5300   -2.5910 o         1 MOL     -0.562583
     61 C21         5.2240   -1.6910   -3.8230 c3        1 MOL     -0.110964
     62 C22         4.5910   -0.6740   -2.9100 c         1 MOL      0.671995
     63 O11         5.3360   -0.0080   -2.1010 o         1 MOL     -0.651201
     64 O12         3.3360   -0.5680   -2.9380 o         1 MOL     -0.651201
     65 H26         4.2000   -3.2920   -1.6820 hn        1 MOL      0.400811
     66 H27         6.0490   -3.6380   -3.9950 h1        1 MOL      0.058185
     67 H28         4.5390   -1.9370   -4.6290 hc        1 MOL      0.006525
     68 H29         6.0880   -1.3310   -4.3730 hc        1 MOL      0.006525
     69 N6          6.6040   -2.5700   -0.9180 n         1 MOL      0.224694
     70 C23         7.5880   -2.3260    0.1060 c3        1 MOL     -0.187974
     71 C24         8.3090   -0.9460    0.0610 c         1 MOL      0.417975
     72 O13         9.3110   -0.7650    0.8020 o         1 MOL     -0.575603
     73 H30         5.7260   -2.9470   -0.5790 hn        1 MOL     -0.054775
     74 H31         8.3680   -3.0690    0.0250 h1        1 MOL      0.082619
     75 H32         7.2330   -2.5130    1.1190 h1        1 MOL      0.082619
     76 N7          7.7040   -0.0610   -0.7650 n         1 MOL      0.040865
     77 C25         7.9940    1.3500   -0.9550 c3        1 MOL      0.016503
     78 C26         7.6810    2.3640    0.1660 c         1 MOL      0.456801
     79 O14         8.1630    3.4550    0.1820 o         1 MOL     -0.520741
     80 C27         9.2700    1.6700   -1.8430 c3        1 MOL      0.108297
     81 C28         9.2570    0.8040   -3.1040 c3        1 MOL     -0.194783
     82 C29        10.1420    1.3050   -4.2620 c         1 MOL      0.680565
     83 N8         10.6790    0.3510   -5.0530 n         1 MOL     -0.828576
     84 O15        10.3410    2.4770   -4.5870 o         1 MOL     -0.564036
     85 H33         6.8480   -0.4380   -1.1440 hn        1 MOL     -0.012714
     86 H34         7.1460    1.5420   -1.6170 h1        1 MOL      0.069289
     87 H35        10.1090    1.4470   -1.1850 hc        1 MOL     -0.032190
     88 H36         9.3420    2.7340   -2.0640 hc        1 MOL     -0.032190
     89 H37         8.2390    0.8240   -3.4860 hc        1 MOL      0.058455
     90 H38         9.4570   -0.1950   -2.7310 hc        1 MOL      0.058455
     91 H39        10.1760   -0.5240   -5.1330 hn        1 MOL      0.346606
     92 H40        11.2670    0.6110   -5.8300 hn        1 MOL      0.346606
     93 N9          6.8860    1.9770    1.1520 n         1 MOL     -0.341083
     94 C30         6.7160    2.6890    2.4290 c3        1 MOL      0.033461
     95 C31         5.2800    2.9310    2.8930 c         1 MOL      0.567999
     96 O16         5.1310    3.5170    3.9830 o         1 MOL     -0.578262
     97 C32         7.4980    2.0110    3.5080 c3        1 MOL      0.185584
     98 C33         6.9880    0.5860    3.8220 c3        1 MOL     -0.210673
     99 C34         9.0160    1.7900    3.3460 c3        1 MOL     -0.210673
    100 H41         6.5480    1.0340    1.1560 hn        1 MOL      0.260231
    101 H42         7.0790    3.7030    2.3230 h1        1 MOL      0.063146
    102 H43         7.3480    2.5730    4.4360 hc        1 MOL     -0.036780
    103 H44         5.8980    0.6440    3.8760 hc        1 MOL      0.041935
    104 H45         7.0690   -0.0510    2.9380 hc        1 MOL      0.041935
    105 H46         7.4540    0.0890    4.6650 hc        1 MOL      0.041935
    106 H47         9.1300    1.0130    2.5910 hc        1 MOL      0.041935
    107 H48         9.4030    2.7200    2.9510 hc        1 MOL      0.041935
    108 H49         9.5830    1.5970    4.2590 hc        1 MOL      0.041935
    109 N10         4.3220    2.5120    2.0720 n         1 MOL     -0.515050
    110 C35         2.9360    2.3630    2.4380 c3        1 MOL      0.369887
    111 C36         2.1210    2.3150    1.0550 c         1 MOL      0.386596
    112 O17         2.6980    2.1070   -0.0500 o         1 MOL     -0.450399
    113 C37         2.7600    1.0800    3.2480 c3        1 MOL     -0.082939
    114 C38         1.2610    0.6640    3.3780 c         1 MOL      0.465237
    115 N11         0.9290   -0.3610    2.6220 n         1 MOL     -0.607643
    116 O18         0.4800    1.3870    3.9550 o         1 MOL     -0.563495
    117 H50         4.5700    2.0320    1.2110 hn        1 MOL      0.218739
    118 H51         2.5910    3.2150    3.0330 h1        1 MOL     -0.008408
    119 H52         3.1120    1.2620    4.2600 hc        1 MOL      0.028296
    120 H53         3.3210    0.2800    2.7640 hc        1 MOL      0.028296
    121 H54         1.5970   -0.8310    2.0340 hn        1 MOL      0.292784
    122 H55        -0.0550   -0.6240    2.6010 hn        1 MOL      0.292784
    123 N12         0.7960    2.4720    1.1320 n         1 MOL     -0.501699
    124 C39        -0.0660    2.5620   -0.0490 c3        1 MOL      0.152079
    125 C40        -1.3230    3.4220    0.1720 c         1 MOL      0.637457
    126 O19        -2.0150    3.2630    1.1630 o         1 MOL     -0.574189
    127 C41        -0.4090    1.1320   -0.4790 c3        1 MOL     -0.216808
    128 C42        -1.3810    1.0380   -1.6240 ca        1 MOL      0.066288
    129 C43        -1.0850    1.4770   -2.8990 ca        1 MOL     -0.153639
    130 C44        -2.7060    0.6470   -1.3760 ca        1 MOL     -0.153639
    131 C45        -2.0570    1.6350   -3.9060 ca        1 MOL     -0.199464
    132 C46        -3.6680    0.6560   -2.3580 ca        1 MOL     -0.199464
    133 C47        -3.3680    1.1420   -3.6730 ca        1 MOL      0.190777
    134 O20        -4.2910    1.2930   -4.6290 oh        1 MOL     -0.534323
    135 H56         0.4530    2.6690    2.0630 hn        1 MOL      0.310451
    136 H57         0.4320    3.0610   -0.8830 h1        1 MOL      0.042890
    137 H58        -0.8460    0.7070    0.4200 hc        1 MOL      0.136982
    138 H59         0.5200    0.6100   -0.7470 hc        1 MOL      0.136982
    139 H60        -0.1430    1.9630   -3.1110 ha        1 MOL      0.134858
    140 H61        -2.9040    0.3140   -0.3650 ha        1 MOL      0.134858
    141 H62        -1.8300    1.9680   -4.9060 ha        1 MOL      0.134375
    142 H63        -4.6800    0.3330   -2.1420 ha        1 MOL      0.134375
    143 H64        -5.0580    0.7260   -4.4760 ho        1 MOL      0.457338
    144 N13        -1.6700    4.3160   -0.8110 n         1 MOL     -0.605777
    145 C48        -2.7890    5.2560   -0.6570 c3        1 MOL      0.224906
    146 C49        -3.8830    5.2030   -1.7100 c         1 MOL      0.487794
    147 O21        -3.8310    5.9620   -2.7130 o         1 MOL     -0.596684
    148 C50        -2.2310    6.6780   -0.6050 c3        1 MOL      0.045699
    149 C51        -1.4740    7.0170    0.6280 c3        1 MOL     -0.009586
    150 C52        -0.9280    8.4820    0.5770 c         1 MOL      0.641771
    151 O22        -1.8320    9.3290    0.6530 o         1 MOL     -0.651143
    152 O23         0.2590    8.6500    0.3720 o         1 MOL     -0.651143
    153 H65        -1.1710    4.2890   -1.6900 hn        1 MOL      0.307499
    154 H66        -3.3220    5.0260    0.2610 h1        1 MOL      0.028633
    155 H67        -3.1290    7.2950   -0.5130 hc        1 MOL      0.001681
    156 H68        -1.6900    7.0110   -1.4900 hc        1 MOL      0.001681
    157 H69        -0.6580    6.3140    0.8100 hc        1 MOL     -0.047172
    158 H70        -2.1140    6.9270    1.4990 hc        1 MOL     -0.047172
    159 N14        -4.8720    4.3260   -1.6330 n         1 MOL     -0.050384
    160 C53        -5.3220    3.4900   -0.4860 c3        1 MOL     -1.225482
    161 C54        -5.8450    4.4010    0.6500 c         1 MOL      0.787554
    162 O24        -6.6610    5.3080    0.5090 o         1 MOL     -0.604295
    163 C55        -6.4120    2.6560   -1.1490 c3        1 MOL      0.923993
    164 C56        -6.9370    1.7270   -0.0500 c3        1 MOL     -0.310288
    165 C57        -8.0040    0.7710   -0.6070 c         1 MOL      0.579750
    166 O25        -8.6480    0.1270    0.2440 o         1 MOL     -0.700128
    167 O26        -8.2590    0.6100   -1.8120 o         1 MOL     -0.700128
    168 H71        -5.5560    4.4170   -2.3720 hn        1 MOL      0.156754
    169 H72        -4.5240    2.7950   -0.2150 h1        1 MOL      0.304280
    170 H73        -6.1410    2.0350   -2.0030 hc        1 MOL     -0.117421
    171 H74        -7.2710    3.2720   -1.4200 hc        1 MOL     -0.117421
    172 H75        -7.2810    2.3190    0.8010 hc        1 MOL      0.045619
    173 H76        -6.0710    1.1160    0.1630 hc        1 MOL      0.045619
    174 N15        -5.4220    4.0730    1.8210 n         1 MOL     -0.149926
    175 C58        -5.6480    4.7180    3.1250 c3        1 MOL     -0.186034
    176 H77        -6.0670    5.7130    2.9690 h1        1 MOL      0.084644
    177 H78        -6.3450    4.1200    3.7110 h1        1 MOL      0.084644
    178 H79        -4.7020    4.8020    3.6590 h1        1 MOL      0.084644
    179 H80        -4.8540    3.2400    1.7900 hn        1 MOL      0.242956
    180 Ca1        -9.1720   -1.9080   -1.2710 Ca        1 MOL      1.538993
    181 O27        -9.0830   -1.6600   -3.9780 oh        1 MOL     -0.727111
    182 H81        -9.3610   -0.9340   -4.5340 ho        1 MOL      0.340642
    183 H82        -9.4670   -2.4340   -4.3820 ho        1 MOL      0.340642
    184 O28       -11.3760   -3.2330   -2.3370 oh        1 MOL     -0.727111
    185 H83       -11.8760   -3.1910   -1.5230 ho        1 MOL      0.340642
    186 H84       -12.0140   -3.5180   -2.9890 ho        1 MOL      0.340642
    187 O29       -11.1850   -0.2620   -2.0210 oh        1 MOL     -0.727111
    188 H85       -11.9700   -0.6270   -1.6240 ho        1 MOL      0.340642
    189 H86       -11.5050    0.3350   -2.6970 ho        1 MOL      0.340642
    190 O30        -8.8690   -4.6260   -1.3720 oh        1 MOL     -0.727111
    191 H87        -9.2010   -5.4300   -1.7590 ho        1 MOL      0.340642
    192 H88        -7.9890   -4.8480   -1.0630 ho        1 MOL      0.340642
@<TRIPOS>BOND
     1    1    2 1   
     2    1    4 1   
     3    1    5 1   
     4    1    6 1   
     5    2    3 2   
     6    2    7 1   
     7    7    8 1   
     8    7   15 1   
     9    8    9 1   
    10    8   11 1   
    11    8   16 1   
    12    9   10 2   
    13    9   19 1   
    14   11   12 1   
    15   11   17 1   
    16   11   18 1   
    17   12   13 1   
    18   12   14 1   
    19   19   20 1   
    20   19   27 1   
    21   20   21 1   
    22   20   23 1   
    23   20   28 1   
    24   21   22 2   
    25   21   38 1   
    26   23   24 1   
    27   23   25 1   
    28   23   29 1   
    29   24   26 1   
    30   24   30 1   
    31   24   31 1   
    32   25   32 1   
    33   25   33 1   
    34   25   34 1   
    35   26   35 1   
    36   26   36 1   
    37   26   37 1   
    38   38   39 1   
    39   38   46 1   
    40   39   40 1   
    41   39   42 1   
    42   39   47 1   
    43   40   41 2   
    44   40   50 1   
    45   42   43 1   
    46   42   48 1   
    47   42   49 1   
    48   43   44 1   
    49   43   45 1   
    50   50   51 1   
    51   50   54 1   
    52   51   52 1   
    53   51   55 1   
    54   51   56 1   
    55   52   53 2   
    56   52   57 1   
    57   57   58 1   
    58   57   65 1   
    59   58   59 1   
    60   58   61 1   
    61   58   66 1   
    62   59   60 2   
    63   59   69 1   
    64   61   62 1   
    65   61   67 1   
    66   61   68 1   
    67   62   63 1   
    68   62   64 1   
    69   69   70 1   
    70   69   73 1   
    71   70   71 1   
    72   70   74 1   
    73   70   75 1   
    74   71   72 2   
    75   71   76 1   
    76   76   77 1   
    77   76   85 1   
    78   77   78 1   
    79   77   80 1   
    80   77   86 1   
    81   78   79 2   
    82   78   93 1   
    83   80   81 1   
    84   80   87 1   
    85   80   88 1   
    86   81   82 1   
    87   81   89 1   
    88   81   90 1   
    89   82   83 1   
    90   82   84 2   
    91   83   91 1   
    92   83   92 1   
    93   93   94 1   
    94   93  100 1   
    95   94   95 1   
    96   94   97 1   
    97   94  101 1   
    98   95   96 2   
    99   95  109 1   
   100   97   98 1   
   101   97   99 1   
   102   97  102 1   
   103   98  103 1   
   104   98  104 1   
   105   98  105 1   
   106   99  106 1   
   107   99  107 1   
   108   99  108 1   
   109  109  110 1   
   110  109  117 1   
   111  110  111 1   
   112  110  113 1   
   113  110  118 1   
   114  111  112 2   
   115  111  123 1   
   116  113  114 1   
   117  113  119 1   
   118  113  120 1   
   119  114  115 1   
   120  114  116 2   
   121  115  121 1   
   122  115  122 1   
   123  123  124 1   
   124  123  135 1   
   125  124  125 1   
   126  124  127 1   
   127  124  136 1   
   128  125  126 2   
   129  125  144 1   
   130  127  128 1   
   131  127  137 1   
   132  127  138 1   
   133  128  129 ar  
   134  128  130 ar  
   135  129  131 ar  
   136  129  139 1   
   137  130  132 ar  
   138  130  140 1   
   139  131  133 ar  
   140  131  141 1   
   141  132  133 ar  
   142  132  142 1   
   143  133  134 1   
   144  134  143 1   
   145  144  145 1   
   146  144  153 1   
   147  145  146 1   
   148  145  148 1   
   149  145  154 1   
   150  146  147 2   
   151  146  159 1   
   152  148  149 1   
   153  148  155 1   
   154  148  156 1   
   155  149  150 1   
   156  149  157 1   
   157  149  158 1   
   158  150  151 1   
   159  150  152 1   
   160  159  160 1   
   161  159  168 1   
   162  160  161 1   
   163  160  163 1   
   164  160  169 1   
   165  161  162 2   
   166  161  174 1   
   167  163  164 1   
   168  163  170 1   
   169  163  171 1   
   170  164  165 1   
   171  164  172 1   
   172  164  173 1   
   173  165  166 1   
   174  165  167 1   
   175  174  175 1   
   176  174  179 1   
   177  175  176 1   
   178  175  177 1   
   179  175  178 1   
   180  181  182 1   
   181  181  183 1   
   182  184  185 1   
   183  184  186 1   
   184  187  188 1   
   185  187  189 1   
   186  190  191 1   
   187  190  192 1   
@<TRIPOS>SUBSTRUCTURE
     1 MOL         1 TEMP              0 ****  ****    0 ROOT
