@<TRIPOS>MOLECULE
MOL
  195   189     1     0     0
SMALL
resp


@<TRIPOS>ATOM
      1 C1         -0.3990   -4.5690    1.9570 c3        1 MOL     -0.246088
      2 C2          0.6940   -4.3730    0.8880 c         1 MOL      0.596996
      3 O1          1.5290   -3.4100    1.0300 o         1 MOL     -0.596415
      4 H1         -0.0420   -5.2630    2.7180 hc        1 MOL      0.028659
      5 H2         -0.6310   -3.6100    2.4200 hc        1 MOL      0.028659
      6 H3         -1.2980   -4.9740    1.4900 hc        1 MOL      0.028659
      7 N1          0.6610   -5.2110   -0.1100 n         1 MOL     -0.454185
      8 C3          1.5910   -5.2790   -1.2500 c3        1 MOL      0.004021
      9 C4          3.0900   -4.9640   -0.8850 c         1 MOL      0.702271
     10 O2          3.7430   -4.0600   -1.4620 o         1 MOL     -0.528347
     11 C5          1.0500   -4.4140   -2.4380 c3        1 MOL     -0.507683
     12 C6         -0.4410   -4.6500   -2.6360 c         1 MOL      0.704369
     13 O3         -0.7730   -5.6930   -3.1650 o         1 MOL     -0.643112
     14 O4         -1.3550   -3.8760   -2.2060 o         1 MOL     -0.643112
     15 H4         -0.0340   -5.9390   -0.0440 hn        1 MOL      0.342509
     16 H5          1.5220   -6.2980   -1.6360 h1        1 MOL      0.070599
     17 H6          1.6460   -4.6060   -3.3310 hc        1 MOL      0.157423
     18 H7          1.1480   -3.3240   -2.3630 hc        1 MOL      0.157423
     19 N2          3.5870   -5.7480    0.0810 n         1 MOL     -0.554953
     20 C7          4.8990   -5.4970    0.6670 c3        1 MOL      0.038598
     21 C8          6.0170   -5.9920   -0.2660 c         1 MOL      0.583964
     22 O5          5.9640   -7.1730   -0.6050 o         1 MOL     -0.625009
     23 C9          4.9890   -6.1290    2.0430 c3        1 MOL      0.200834
     24 C10         4.1620   -5.2630    2.9750 c3        1 MOL      0.104726
     25 C11         6.3980   -6.3670    2.5510 c3        1 MOL     -0.343062
     26 C12         3.9920   -5.7090    4.3880 c3        1 MOL     -0.455491
     27 H8          3.0490   -6.4690    0.5300 hn        1 MOL      0.251909
     28 H9          5.0790   -4.4570    0.9500 h1        1 MOL      0.086355
     29 H10         4.4700   -7.0810    1.9460 hc        1 MOL     -0.028208
     30 H11         3.1780   -5.1320    2.5270 hc        1 MOL      0.042123
     31 H12         4.6380   -4.2800    3.0150 hc        1 MOL      0.042123
     32 H13         6.8610   -7.1780    1.9850 hc        1 MOL      0.079539
     33 H14         6.8940   -5.4010    2.5270 hc        1 MOL      0.079539
     34 H15         6.4060   -6.6780    3.6010 hc        1 MOL      0.079539
     35 H16         3.9600   -6.8030    4.4100 hc        1 MOL      0.099355
     36 H17         4.7080   -5.2910    5.1010 hc        1 MOL      0.099355
     37 H18         3.0100   -5.3380    4.7170 hc        1 MOL      0.099355
     38 N3          6.9790   -5.2570   -0.7470 n         1 MOL     -0.467472
     39 C13         7.2210   -3.7930   -0.5830 c3        1 MOL      0.128150
     40 C14         7.5080   -3.1500   -1.8940 c         1 MOL      0.544688
     41 O6          7.9680   -3.7710   -2.8600 o         1 MOL     -0.591859
     42 C15         8.4010   -3.4980    0.3770 c3        1 MOL     -0.269700
     43 C16         8.4690   -2.0940    0.9360 c         1 MOL      0.685030
     44 O7          9.4850   -1.8090    1.6560 o         1 MOL     -0.687528
     45 O8          7.5390   -1.2430    0.7390 o         1 MOL     -0.687528
     46 H19         7.5770   -5.6870   -1.4320 hn        1 MOL      0.282597
     47 H20         6.2970   -3.3750   -0.1940 h1        1 MOL      0.005810
     48 H21         9.3850   -3.6820   -0.0580 hc        1 MOL      0.064046
     49 H22         8.2560   -4.2130    1.1840 hc        1 MOL      0.064046
     50 N4          7.2180   -1.8560   -2.0090 n         1 MOL     -0.255312
     51 C17         7.2250   -1.0470   -3.1640 c3        1 MOL     -0.053715
     52 C18         7.6670    0.3740   -2.8620 c         1 MOL      0.397558
     53 O9          8.8350    0.7370   -2.6370 o         1 MOL     -0.510105
     54 H23         6.9210   -1.4070   -1.1440 hn        1 MOL      0.212675
     55 H24         6.2400   -0.9730   -3.6190 h1        1 MOL      0.064403
     56 H25         7.9010   -1.4170   -3.9290 h1        1 MOL      0.064403
     57 N5          6.7030    1.2830   -2.9480 n         1 MOL     -0.207355
     58 C19         6.8480    2.7310   -2.7350 c3        1 MOL     -0.044552
     59 C20         7.3260    3.1490   -1.3110 c         1 MOL      0.437598
     60 O10         8.2460    3.9790   -1.1640 o         1 MOL     -0.550495
     61 C21         5.5470    3.4790   -3.0780 c3        1 MOL     -0.181859
     62 C22         4.3130    2.7850   -2.4970 c         1 MOL      0.611945
     63 O11         3.9160    1.6850   -2.9870 o         1 MOL     -0.641867
     64 O12         3.7170    3.3400   -1.5410 o         1 MOL     -0.641867
     65 H26         5.8090    1.0180   -3.3420 hn        1 MOL      0.172192
     66 H27         7.5990    3.1410   -3.4120 h1        1 MOL      0.064059
     67 H28         5.4950    3.5210   -4.1680 hc        1 MOL      0.052208
     68 H29         5.5790    4.5110   -2.7360 hc        1 MOL      0.052208
     69 N6          6.7150    2.6170   -0.2390 n         1 MOL     -0.173790
     70 C23         6.8070    3.2340    1.1370 c3        1 MOL     -0.260284
     71 C24         5.7710    4.2490    1.5220 c         1 MOL      0.514572
     72 O13         5.8180    4.7860    2.6360 o         1 MOL     -0.612886
     73 H30         6.1560    1.7750   -0.2900 hn        1 MOL      0.269215
     74 H31         7.7310    3.8080    1.1770 h1        1 MOL      0.135624
     75 H32         6.8750    2.4480    1.8870 h1        1 MOL      0.135624
     76 N7          4.7620    4.4650    0.6830 n         1 MOL     -0.018631
     77 C25         3.7860    5.5650    0.8180 c3        1 MOL     -0.028349
     78 C26         2.8770    5.4620    2.0610 c         1 MOL      0.548644
     79 O14         2.5600    6.4800    2.6050 o         1 MOL     -0.541014
     80 C27         4.5040    6.9170    0.6110 c3        1 MOL      0.117249
     81 C28         5.4100    7.1120   -0.6150 c3        1 MOL     -0.145436
     82 C29         5.2970    8.5160   -1.1750 c         1 MOL      0.635121
     83 N8          6.0730    8.7650   -2.2250 n         1 MOL     -0.791563
     84 O15         4.5350    9.3780   -0.7670 o         1 MOL     -0.556401
     85 H33         4.6910    3.8800   -0.1390 hn        1 MOL      0.013791
     86 H34         3.1460    5.5750   -0.0690 h1        1 MOL      0.086473
     87 H35         5.0260    7.3190    1.4720 hc        1 MOL     -0.013237
     88 H36         3.6570    7.5990    0.5220 hc        1 MOL     -0.013237
     89 H37         5.2350    6.2940   -1.3210 hc        1 MOL      0.041524
     90 H38         6.4300    6.9910   -0.2420 hc        1 MOL      0.041524
     91 H39         6.7620    8.0800   -2.4830 hn        1 MOL      0.345509
     92 H40         6.0470    9.6880   -2.6280 hn        1 MOL      0.345509
     93 N9          2.4140    4.2740    2.3550 n         1 MOL     -0.406647
     94 C30         1.5830    3.8420    3.5520 c3        1 MOL     -0.180593
     95 C31         0.5610    2.6820    3.2520 c         1 MOL      0.691736
     96 O16        -0.4530    2.6800    3.9360 o         1 MOL     -0.577279
     97 C32         2.4760    3.2920    4.7370 c3        1 MOL      0.282367
     98 C33         3.4710    2.2460    4.4310 c3        1 MOL     -0.414641
     99 C34         3.2030    4.4940    5.3910 c3        1 MOL     -0.414641
    100 H41         2.7440    3.5460    1.7380 hn        1 MOL      0.184912
    101 H42         1.0670    4.7380    3.8820 h1        1 MOL      0.152686
    102 H43         1.7720    2.8090    5.4010 hc        1 MOL     -0.034816
    103 H44         3.0000    1.4220    3.8890 hc        1 MOL      0.107739
    104 H45         4.2790    2.5960    3.7940 hc        1 MOL      0.107739
    105 H46         3.8500    1.9280    5.4060 hc        1 MOL      0.107739
    106 H47         2.4240    5.1990    5.6950 hc        1 MOL      0.107739
    107 H48         3.7930    4.1240    6.2180 hc        1 MOL      0.107739
    108 H49         3.8350    5.0140    4.6680 hc        1 MOL      0.107739
    109 N10         0.7150    1.9210    2.0980 n         1 MOL     -0.483967
    110 C35        -0.2180    0.9430    1.5980 c3        1 MOL     -0.089943
    111 C36        -1.0810    1.5710    0.5520 c         1 MOL      0.559801
    112 O17        -0.6430    2.2480   -0.3590 o         1 MOL     -0.537212
    113 C37         0.4190   -0.3840    1.1550 c3        1 MOL     -0.038491
    114 C38        -0.5590   -1.2440    0.3800 c         1 MOL      0.499106
    115 N11        -0.4150   -1.4410   -0.9030 n         1 MOL     -0.393942
    116 O18        -1.5540   -1.6820    0.9150 o         1 MOL     -0.591951
    117 H50         1.5730    1.9410    1.5700 hn        1 MOL      0.337902
    118 H51        -0.8730    0.7390    2.4480 h1        1 MOL      0.090171
    119 H52         0.8650   -0.8420    2.0410 hc        1 MOL      0.069916
    120 H53         1.3500   -0.2090    0.6140 hc        1 MOL      0.069916
    121 H54         0.3200   -0.9640   -1.4020 hn        1 MOL      0.251308
    122 H55        -0.9890   -2.0710   -1.4440 hn        1 MOL      0.251308
    123 N12        -2.3520    1.2110    0.5770 n         1 MOL     -0.302763
    124 C39        -3.3640    1.5180   -0.4600 c3        1 MOL      0.069586
    125 C40        -4.7230    1.6390    0.2560 c         1 MOL      0.391997
    126 O19        -5.0260    1.0590    1.3310 o         1 MOL     -0.485799
    127 C41        -3.2430    0.4130   -1.5480 c3        1 MOL     -0.338609
    128 C42        -4.2090    0.7580   -2.7200 ca        1 MOL      0.089797
    129 C43        -3.9950    1.9040   -3.5360 ca        1 MOL     -0.168639
    130 C44        -5.2800   -0.1310   -2.9560 ca        1 MOL     -0.168639
    131 C45        -4.7960    2.0630   -4.7100 ca        1 MOL     -0.240307
    132 C46        -6.0910    0.0980   -4.0440 ca        1 MOL     -0.240307
    133 C47        -5.9070    1.2440   -4.8690 ca        1 MOL      0.340566
    134 O20        -6.7340    1.3600   -5.8930 oh        1 MOL     -0.530391
    135 H56        -2.6690    0.7650    1.4230 hn        1 MOL      0.202627
    136 H57        -3.0720    2.5120   -0.7880 h1        1 MOL      0.085785
    137 H58        -3.5440   -0.5550   -1.1250 hc        1 MOL      0.137007
    138 H59        -2.2360    0.5420   -1.9610 hc        1 MOL      0.137007
    139 H60        -3.1530    2.5620   -3.3500 ha        1 MOL      0.165950
    140 H61        -5.4810   -1.0230   -2.3880 ha        1 MOL      0.165950
    141 H62        -4.5550    2.8780   -5.3760 ha        1 MOL      0.120031
    142 H63        -6.9370   -0.5030   -4.3230 ha        1 MOL      0.120031
    143 H64        -6.5700    2.1200   -6.4570 ho        1 MOL      0.394685
    144 N13        -5.5570    2.5080   -0.3460 n         1 MOL     -0.342393
    145 C48        -6.9600    2.6440   -0.1310 c3        1 MOL      0.177023
    146 C49        -7.6930    2.3920   -1.4900 c         1 MOL      0.645757
    147 O21        -7.6390    3.2990   -2.3450 o         1 MOL     -0.558944
    148 C50        -7.3050    3.9960    0.5130 c3        1 MOL     -0.311007
    149 C51        -8.8380    4.0960    0.7080 c3        1 MOL     -0.055219
    150 C52        -9.4070    5.4120    1.1890 c         1 MOL      0.672314
    151 O22        -9.9810    5.3580    2.2690 o         1 MOL     -0.683151
    152 O23        -9.5520    6.3450    0.3230 o         1 MOL     -0.683151
    153 H65        -5.3750    2.6200   -1.3260 hn        1 MOL      0.193120
    154 H66        -7.2710    1.9050    0.6110 h1        1 MOL      0.071302
    155 H67        -6.8700    4.7750   -0.1080 hc        1 MOL      0.082885
    156 H68        -6.7330    3.9650    1.4500 hc        1 MOL      0.082885
    157 H69        -9.0090    3.2760    1.4070 hc        1 MOL      0.035167
    158 H70        -9.4120    3.8310   -0.1780 hc        1 MOL      0.035167
    159 N14        -8.4060    1.2750   -1.6410 n         1 MOL     -0.627223
    160 C53        -8.3020   -0.0320   -0.9130 c3        1 MOL      0.023505
    161 C54        -8.8560    0.0910    0.5100 c         1 MOL      0.377531
    162 O24        -9.9260    0.7170    0.8050 o         1 MOL     -0.502610
    163 C55        -8.9410   -1.2030   -1.7790 c3        1 MOL      0.186843
    164 C56        -9.0050   -2.6180   -1.1900 c3        1 MOL     -0.510936
    165 C57        -7.7260   -3.1450   -0.4950 c         1 MOL      1.116045
    166 O25        -6.6060   -2.5510   -0.6320 o         1 MOL     -0.882744
    167 O26        -7.7870   -4.1690    0.2110 o         1 MOL     -0.882744
    168 H71        -9.0930    1.4460   -2.3550 hn        1 MOL      0.314634
    169 H72        -7.2540   -0.2730   -0.7800 h1        1 MOL      0.182694
    170 H73        -8.4110   -1.2360   -2.7360 hc        1 MOL      0.008915
    171 H74        -9.9630   -0.9800   -2.0900 hc        1 MOL      0.008915
    172 H75        -9.1490   -3.3520   -1.9770 hc        1 MOL      0.107091
    173 H76        -9.8700   -2.6410   -0.5190 hc        1 MOL      0.107091
    174 N15        -8.0210   -0.4530    1.4560 n         1 MOL     -0.244084
    175 C58        -8.1960   -0.5580    2.9370 c3        1 MOL     -0.182577
    176 H77        -7.9630   -1.5730    3.2590 h1        1 MOL      0.100999
    177 H78        -7.5250    0.1430    3.4330 h1        1 MOL      0.100999
    178 H79        -9.2270   -0.3230    3.1990 h1        1 MOL      0.100999
    179 H80        -7.2930   -1.0260    1.0570 hn        1 MOL      0.209925
    180 Ca1        -5.3280   -3.9410    1.2080 Ca        1 MOL      1.686423
    181 O27        -7.4700   -4.2420    3.0180 oh        1 MOL     -0.872714
    182 H81        -8.3370   -4.3430    3.3940 ho        1 MOL      0.406193
    183 H82        -7.1300   -5.1360    2.9470 ho        1 MOL      0.406193
    184 O28        -5.0980   -1.4480    2.2030 oh        1 MOL     -0.872714
    185 H83        -5.2670   -0.5300    1.9970 ho        1 MOL      0.406193
    186 H84        -4.3360   -1.4350    2.7800 ho        1 MOL      0.406193
    187 O29        -4.3680   -3.7620    3.9020 oh        1 MOL     -0.872714
    188 H85        -4.3070   -2.9160    4.3460 ho        1 MOL      0.406193
    189 H86        -4.3400   -4.4040    4.6080 ho        1 MOL      0.406193
    190 O30        -5.0080   -5.8850   -0.6120 oh        1 MOL     -0.872714
    191 H87        -5.3850   -6.7620   -0.5550 ho        1 MOL      0.406193
    192 H88        -4.2630   -5.9790   -1.2050 ho        1 MOL      0.406193
    193 O31        -3.1780   -3.3280   -0.5010 oh        1 MOL     -0.872714
    194 H89        -2.5150   -3.6730   -1.1070 ho        1 MOL      0.406193
    195 H90        -2.7010   -2.7180    0.0530 ho        1 MOL      0.406193
@<TRIPOS>BOND
     1    1    2 1   
     2    1    4 1   
     3    1    5 1   
     4    1    6 1   
     5    2    3 2   
     6    2    7 1   
     7    7    8 1   
     8    7   15 1   
     9    8    9 1   
    10    8   11 1   
    11    8   16 1   
    12    9   10 2   
    13    9   19 1   
    14   11   12 1   
    15   11   17 1   
    16   11   18 1   
    17   12   13 1   
    18   12   14 1   
    19   19   20 1   
    20   19   27 1   
    21   20   21 1   
    22   20   23 1   
    23   20   28 1   
    24   21   22 2   
    25   21   38 1   
    26   23   24 1   
    27   23   25 1   
    28   23   29 1   
    29   24   26 1   
    30   24   30 1   
    31   24   31 1   
    32   25   32 1   
    33   25   33 1   
    34   25   34 1   
    35   26   35 1   
    36   26   36 1   
    37   26   37 1   
    38   38   39 1   
    39   38   46 1   
    40   39   40 1   
    41   39   42 1   
    42   39   47 1   
    43   40   41 2   
    44   40   50 1   
    45   42   43 1   
    46   42   48 1   
    47   42   49 1   
    48   43   44 1   
    49   43   45 1   
    50   50   51 1   
    51   50   54 1   
    52   51   52 1   
    53   51   55 1   
    54   51   56 1   
    55   52   53 2   
    56   52   57 1   
    57   57   58 1   
    58   57   65 1   
    59   58   59 1   
    60   58   61 1   
    61   58   66 1   
    62   59   60 2   
    63   59   69 1   
    64   61   62 1   
    65   61   67 1   
    66   61   68 1   
    67   62   63 1   
    68   62   64 1   
    69   69   70 1   
    70   69   73 1   
    71   70   71 1   
    72   70   74 1   
    73   70   75 1   
    74   71   72 2   
    75   71   76 1   
    76   76   77 1   
    77   76   85 1   
    78   77   78 1   
    79   77   80 1   
    80   77   86 1   
    81   78   79 2   
    82   78   93 1   
    83   80   81 1   
    84   80   87 1   
    85   80   88 1   
    86   81   82 1   
    87   81   89 1   
    88   81   90 1   
    89   82   83 1   
    90   82   84 2   
    91   83   91 1   
    92   83   92 1   
    93   93   94 1   
    94   93  100 1   
    95   94   95 1   
    96   94   97 1   
    97   94  101 1   
    98   95   96 2   
    99   95  109 1   
   100   97   98 1   
   101   97   99 1   
   102   97  102 1   
   103   98  103 1   
   104   98  104 1   
   105   98  105 1   
   106   99  106 1   
   107   99  107 1   
   108   99  108 1   
   109  109  110 1   
   110  109  117 1   
   111  110  111 1   
   112  110  113 1   
   113  110  118 1   
   114  111  112 2   
   115  111  123 1   
   116  113  114 1   
   117  113  119 1   
   118  113  120 1   
   119  114  115 1   
   120  114  116 2   
   121  115  121 1   
   122  115  122 1   
   123  123  124 1   
   124  123  135 1   
   125  124  125 1   
   126  124  127 1   
   127  124  136 1   
   128  125  126 2   
   129  125  144 1   
   130  127  128 1   
   131  127  137 1   
   132  127  138 1   
   133  128  129 ar  
   134  128  130 ar  
   135  129  131 ar  
   136  129  139 1   
   137  130  132 ar  
   138  130  140 1   
   139  131  133 ar  
   140  131  141 1   
   141  132  133 ar  
   142  132  142 1   
   143  133  134 1   
   144  134  143 1   
   145  144  145 1   
   146  144  153 1   
   147  145  146 1   
   148  145  148 1   
   149  145  154 1   
   150  146  147 2   
   151  146  159 1   
   152  148  149 1   
   153  148  155 1   
   154  148  156 1   
   155  149  150 1   
   156  149  157 1   
   157  149  158 1   
   158  150  151 1   
   159  150  152 1   
   160  159  160 1   
   161  159  168 1   
   162  160  161 1   
   163  160  163 1   
   164  160  169 1   
   165  161  162 2   
   166  161  174 1   
   167  163  164 1   
   168  163  170 1   
   169  163  171 1   
   170  164  165 1   
   171  164  172 1   
   172  164  173 1   
   173  165  166 1   
   174  165  167 1   
   175  174  175 1   
   176  174  179 1   
   177  175  176 1   
   178  175  177 1   
   179  175  178 1   
   180  181  182 1   
   181  181  183 1   
   182  184  185 1   
   183  184  186 1   
   184  187  188 1   
   185  187  189 1   
   186  190  191 1   
   187  190  192 1   
   188  193  194 1   
   189  193  195 1   
@<TRIPOS>SUBSTRUCTURE
     1 MOL         1 TEMP              0 ****  ****    0 ROOT
