@<TRIPOS>MOLECULE
MOL
  181   177     1     0     0
SMALL
resp


@<TRIPOS>ATOM
      1 C1         11.0020   -5.3220   -3.8790 c3        1 MOL     -0.318640
      2 C2         10.4380   -3.9620   -3.7960 c         1 MOL      0.718434
      3 O1          9.9590   -3.3900   -4.7990 o         1 MOL     -0.615372
      4 H1         10.8660   -5.8300   -2.9240 hc        1 MOL      0.081009
      5 H2         10.4910   -5.8810   -4.6630 hc        1 MOL      0.081009
      6 H3         12.0660   -5.2610   -4.1100 hc        1 MOL      0.081009
      7 N1         10.4990   -3.2120   -2.7120 n         1 MOL     -0.622328
      8 C3         11.0290   -3.5060   -1.3760 c3        1 MOL      0.228203
      9 C4         11.6150   -2.3140   -0.6450 c         1 MOL      0.364575
     10 O2         11.7890   -2.3670    0.6260 o         1 MOL     -0.560892
     11 C5          9.8070   -4.0350   -0.5840 c3        1 MOL     -0.324146
     12 C6          8.6630   -3.1170   -0.2540 c         1 MOL      0.951953
     13 O3          8.6960   -1.9840   -0.7090 o         1 MOL     -0.813785
     14 O4          7.7000   -3.4840    0.4730 o         1 MOL     -0.813785
     15 H4         10.0620   -2.3070   -2.8690 hn        1 MOL      0.381409
     16 H5         11.9010   -4.1580   -1.2930 h1        1 MOL      0.061539
     17 H6         10.0800   -4.4530    0.3850 hc        1 MOL      0.061331
     18 H7          9.4100   -4.9290   -1.0710 hc        1 MOL      0.061331
     19 N2         11.8450   -1.1750   -1.2610 n         1 MOL     -0.374764
     20 C7         12.4300    0.1260   -0.8780 c3        1 MOL      0.381504
     21 C8         11.4580    1.1310   -0.2000 c         1 MOL      0.307366
     22 O5         11.7630    2.3330   -0.1680 o         1 MOL     -0.534772
     23 C9         13.1220    0.7560   -2.0710 c3        1 MOL     -0.318617
     24 H8         11.6860   -1.2650   -2.2540 hn        1 MOL      0.198556
     25 H9         13.1820   -0.1090   -0.1340 h1        1 MOL      0.001418
     26 H10        13.6120   -0.0220   -2.6510 hc        1 MOL      0.085756
     27 H11        12.5250    1.4040   -2.7110 hc        1 MOL      0.085756
     28 H12        13.8880    1.3770   -1.5980 hc        1 MOL      0.085756
     29 N3         10.2730    0.7710    0.2620 n         1 MOL     -0.135478
     30 C10         9.3620    1.6580    0.9830 c3        1 MOL     -0.098365
     31 C11         8.4530    0.8640    1.8700 c         1 MOL      0.391006
     32 O6          8.3080   -0.3500    1.5850 o         1 MOL     -0.531341
     33 C12         8.6380    2.6680    0.0650 c3        1 MOL     -0.065804
     34 C13         7.9220    1.8440   -1.0440 c         1 MOL      0.617592
     35 O7          8.1640    2.1900   -2.2170 o         1 MOL     -0.665736
     36 O8          7.2690    0.8160   -0.7460 o         1 MOL     -0.665736
     37 H13         9.9140   -0.1700    0.1300 hn        1 MOL      0.271332
     38 H14         9.9290    2.2620    1.6970 h1        1 MOL      0.059297
     39 H15         9.2930    3.2860   -0.5450 hc        1 MOL      0.034727
     40 H16         7.8790    3.3070    0.5220 hc        1 MOL      0.034727
     41 N4          7.9640    1.4330    2.9620 n         1 MOL     -0.270250
     42 C14         7.0550    0.6250    3.8050 c3        1 MOL     -0.252679
     43 C15         5.5650    0.5440    3.3060 c         1 MOL      0.736779
     44 O9          5.4170    0.5800    2.1010 o         1 MOL     -0.593962
     45 H17         8.2330    2.3700    3.2040 hn        1 MOL      0.286645
     46 H18         7.0520    0.9580    4.8490 h1        1 MOL      0.110384
     47 H19         7.3510   -0.4280    3.8770 h1        1 MOL      0.110384
     48 N5          4.5550    0.5150    4.1520 n         1 MOL     -0.757413
     49 C16         3.1450    0.2290    3.6890 c3        1 MOL      0.640996
     50 C17         2.4370    1.3080    2.7720 c         1 MOL      0.396880
     51 O10         2.7620    2.5280    2.9190 o         1 MOL     -0.522895
     52 C18         2.3030   -0.2590    4.9020 c3        1 MOL     -0.501090
     53 C19         1.0830   -1.0600    4.5290 c         1 MOL      0.679830
     54 N6         -0.1630   -0.7730    4.8530 n         1 MOL     -0.782988
     55 O11         1.1800   -1.9730    3.7470 o         1 MOL     -0.564822
     56 H20         4.7640    0.7430    5.1150 hn        1 MOL      0.343135
     57 H21         3.2600   -0.6650    3.0810 h1        1 MOL     -0.083839
     58 H22         2.0000    0.6060    5.4810 hc        1 MOL      0.105232
     59 H23         2.9240   -0.9180    5.5070 hc        1 MOL      0.105232
     60 H24        -0.2540   -0.0460    5.5490 hn        1 MOL      0.395373
     61 H25        -0.8870   -1.4150    4.5660 hn        1 MOL      0.395373
     62 N7          1.5320    0.9190    1.8640 n         1 MOL     -0.332574
     63 C20         0.7500    1.9130    1.0100 c3        1 MOL     -0.177571
     64 C21         1.5480    2.6090   -0.0580 c         1 MOL      0.681794
     65 O12         2.4790    2.0410   -0.5180 o         1 MOL     -0.632279
     66 H26         1.4260   -0.0720    1.6990 hn        1 MOL      0.268252
     67 H27         0.3170    2.6480    1.6990 h1        1 MOL      0.141050
     68 H28        -0.0940    1.3540    0.6060 h1        1 MOL      0.141050
     69 N8          1.1080    3.7250   -0.6050 n         1 MOL     -0.309022
     70 C22         0.0590    4.6890   -0.1940 c3        1 MOL     -0.218775
     71 C23        -1.3360    4.1720   -0.2930 c         1 MOL      0.229109
     72 O13        -2.1770    4.5230    0.5870 o         1 MOL     -0.501507
     73 C24         0.1300    6.0420   -0.9080 c3        1 MOL      0.460851
     74 C25         1.3410    6.7750   -0.5570 c3        1 MOL     -0.456953
     75 O14         0.1570    5.8030   -2.3140 oh        1 MOL     -0.614751
     76 H29         1.7840    4.0340   -1.2850 hn        1 MOL      0.240042
     77 H30         0.2870    4.8540    0.8680 h1        1 MOL      0.119726
     78 H31        -0.7360    6.6310   -0.6140 h1        1 MOL      0.077824
     79 H32         1.0100    5.4570   -2.6010 ho        1 MOL      0.386750
     80 H33         1.2450    7.7390   -1.0520 hc        1 MOL      0.110187
     81 H34         1.3960    6.9420    0.5220 hc        1 MOL      0.110187
     82 H35         2.2360    6.1920   -0.8010 hc        1 MOL      0.110187
     83 N9         -1.6880    3.4550   -1.3650 n         1 MOL     -0.005805
     84 C26        -2.9860    2.8480   -1.5810 c3        1 MOL      0.369519
     85 C27        -2.8260    1.5080   -0.8760 c         1 MOL      0.354363
     86 O15        -1.7660    0.8360   -0.9690 o         1 MOL     -0.631035
     87 C28        -3.2860    2.7340   -3.0970 c3        1 MOL      0.000489
     88 C29        -3.2370    4.0960   -3.7660 c3        1 MOL      0.040707
     89 C30        -4.6470    2.0580   -3.4330 c3        1 MOL     -0.055196
     90 C31        -3.9690    5.2620   -2.9890 c3        1 MOL     -0.278648
     91 H36        -0.9070    3.1390   -1.9160 hn        1 MOL      0.073185
     92 H37        -3.6890    3.5310   -1.1020 h1        1 MOL     -0.029630
     93 H38        -2.5800    2.0750   -3.6030 hc        1 MOL     -0.023348
     94 H39        -3.4770    3.9640   -4.8210 hc        1 MOL     -0.020793
     95 H40        -2.1940    4.4320   -3.7910 hc        1 MOL     -0.020793
     96 H41        -4.9220    2.0400   -4.4840 hc        1 MOL      0.048686
     97 H42        -4.5740    1.0140   -3.1140 hc        1 MOL      0.048686
     98 H43        -5.4360    2.5360   -2.8410 hc        1 MOL      0.048686
     99 H44        -5.0160    4.9700   -2.8430 hc        1 MOL      0.067364
    100 H45        -3.4600    5.5120   -2.0700 hc        1 MOL      0.067364
    101 H46        -3.7690    6.1870   -3.5290 hc        1 MOL      0.067364
    102 N10        -3.7970    1.0420   -0.1070 n         1 MOL     -0.353468
    103 C32        -5.1590    1.5960    0.1140 c3        1 MOL      0.134828
    104 C33        -6.0990    0.3390    0.1610 c         1 MOL      0.215508
    105 O16        -5.7450   -0.8630    0.0870 o         1 MOL     -0.465334
    106 C34        -5.3260    2.3770    1.4410 c3        1 MOL     -0.074262
    107 C35        -4.7260    1.6070    2.6910 c         1 MOL      0.688209
    108 O17        -4.1840    0.4940    2.5450 o         1 MOL     -0.706521
    109 O18        -4.7890    2.1920    3.7670 o         1 MOL     -0.706521
    110 H47        -3.5720    0.2320    0.4560 hn        1 MOL      0.335910
    111 H48        -5.5330    2.2880   -0.6410 h1        1 MOL      0.064645
    112 H49        -6.3950    2.4640    1.6700 hc        1 MOL     -0.017579
    113 H50        -4.8970    3.3720    1.3830 hc        1 MOL     -0.017579
    114 N11        -7.4060    0.6090    0.2930 n         1 MOL     -0.411668
    115 C36        -8.4470   -0.2030    0.8620 c3        1 MOL      0.560017
    116 C37        -9.8690    0.1670    0.4410 c         1 MOL      0.068866
    117 O19       -10.1120    1.3930    0.3770 o         1 MOL     -0.491863
    118 C38        -8.3240   -0.1510    2.4030 c3        1 MOL     -0.289533
    119 C39        -9.1550   -1.1440    3.2250 ca        1 MOL      0.188377
    120 C40       -10.4730   -0.8750    3.5820 ca        1 MOL     -0.260579
    121 C41        -8.6010   -2.4030    3.5710 ca        1 MOL     -0.260579
    122 C42       -11.2500   -1.9120    4.1970 ca        1 MOL     -0.036899
    123 C43        -9.3700   -3.4130    4.2710 ca        1 MOL     -0.036899
    124 C44       -10.7210   -3.1310    4.5930 ca        1 MOL     -0.208527
    125 H51        -7.6730    1.5860    0.1950 hn        1 MOL      0.269776
    126 H52        -8.1730   -1.2060    0.5360 h1        1 MOL     -0.013428
    127 H53        -8.5160    0.8520    2.7930 hc        1 MOL      0.097313
    128 H54        -7.2580   -0.2620    2.5790 hc        1 MOL      0.097313
    129 H55       -10.9210    0.0890    3.3960 ha        1 MOL      0.158609
    130 H56        -7.5960   -2.6590    3.2550 ha        1 MOL      0.158609
    131 H57       -12.2940   -1.6990    4.3850 ha        1 MOL      0.086976
    132 H58        -8.8770   -4.3340    4.5630 ha        1 MOL      0.086976
    133 H59       -11.3240   -3.8890    5.0800 ha        1 MOL      0.109454
    134 N12       -10.7760   -0.7630    0.1580 n         1 MOL      0.177171
    135 C45       -10.5970   -2.2410    0.2020 c3        1 MOL      0.121324
    136 C46        -9.5350   -2.8070   -0.7390 c         1 MOL      0.247807
    137 O20        -8.7540   -3.6490   -0.3060 o         1 MOL     -0.514044
    138 C47       -11.9750   -2.8070   -0.0710 c3        1 MOL     -0.041369
    139 C48       -12.9030   -1.7300    0.3500 c3        1 MOL      0.053077
    140 C49       -12.2290   -0.4340    0.0390 c3        1 MOL     -0.160265
    141 H60       -10.4140   -2.5500    1.2300 h1        1 MOL      0.038524
    142 H61       -12.1140   -2.9830   -1.1440 hc        1 MOL      0.016970
    143 H62       -12.1210   -3.7140    0.5290 hc        1 MOL      0.016970
    144 H63       -13.8500   -1.8660   -0.1800 hc        1 MOL     -0.019879
    145 H64       -12.9010   -1.7930    1.4410 hc        1 MOL     -0.019879
    146 H65       -12.4420   -0.0190   -0.9460 h1        1 MOL      0.067333
    147 H66       -12.4060    0.2540    0.8590 h1        1 MOL      0.067333
    148 N13        -9.3260   -2.0880   -1.8300 n         1 MOL     -0.296380
    149 C50        -8.3000   -2.3300   -2.9110 c3        1 MOL      0.281441
    150 C51        -8.4750   -3.7160   -3.5630 c         1 MOL      0.432165
    151 O21        -9.1190   -3.8350   -4.5570 o         1 MOL     -0.560277
    152 C52        -8.3970   -1.2090   -3.9180 c3        1 MOL     -0.188294
    153 C53        -7.9450    0.1290   -3.3520 c3        1 MOL      0.031165
    154 C54        -8.4420    1.3480   -4.1200 c         1 MOL      0.720104
    155 O22        -8.6900    2.3530   -3.4590 o         1 MOL     -0.744500
    156 O23        -8.5040    1.3230   -5.3450 o         1 MOL     -0.744500
    157 H67        -9.9880   -1.3700   -2.0830 hn        1 MOL      0.240852
    158 H68        -7.2690   -2.2600   -2.5650 h1        1 MOL      0.062973
    159 H69        -9.4110   -1.0290   -4.2800 hc        1 MOL      0.035466
    160 H70        -7.7410   -1.4020   -4.7620 hc        1 MOL      0.035466
    161 H71        -6.8550    0.2350   -3.3840 hc        1 MOL     -0.076493
    162 H72        -8.3010    0.2130   -2.3230 hc        1 MOL     -0.076493
    163 N14        -7.9420   -4.8480   -3.0690 n         1 MOL     -0.343505
    164 C55        -6.8120   -5.1030   -2.1080 c3        1 MOL     -0.174237
    165 H73        -7.1840   -5.6610   -1.2490 h1        1 MOL      0.088637
    166 H74        -6.0340   -5.6810   -2.6070 h1        1 MOL      0.088637
    167 H75        -6.3990   -4.1520   -1.7720 h1        1 MOL      0.088637
    168 H76        -8.2010   -5.7270   -3.4850 hn        1 MOL      0.255444
    169 Ca1         6.2830   -1.3030    0.2370 Ca        1 MOL      1.720280
    170 O24         6.0710   -2.5670    2.6260 oh        1 MOL     -0.792562
    171 H77         5.9390   -2.5400    3.5730 ho        1 MOL      0.396795
    172 H78         6.7280   -3.2530    2.4970 ho        1 MOL      0.396795
    173 O25         3.5560   -0.7690    0.5310 oh        1 MOL     -0.792562
    174 H79         2.8870   -1.3620    0.1760 ho        1 MOL      0.396795
    175 H80         3.1870    0.1050    0.3920 ho        1 MOL      0.396795
    176 O26         5.3600   -1.1480   -2.1200 oh        1 MOL     -0.792562
    177 H81         4.7150   -0.4390   -2.0900 ho        1 MOL      0.396795
    178 H82         5.5180   -1.2900   -3.0500 ho        1 MOL      0.396795
    179 O27         4.8070   -3.5830   -0.1530 oh        1 MOL     -0.792562
    180 H83         4.3340   -4.1680   -0.7500 ho        1 MOL      0.396795
    181 H84         4.4700   -3.8030    0.7160 ho        1 MOL      0.396795
@<TRIPOS>BOND
     1    1    2 1   
     2    1    4 1   
     3    1    5 1   
     4    1    6 1   
     5    2    3 2   
     6    2    7 1   
     7    7    8 1   
     8    7   15 1   
     9    8    9 1   
    10    8   11 1   
    11    8   16 1   
    12    9   10 2   
    13    9   19 1   
    14   11   12 1   
    15   11   17 1   
    16   11   18 1   
    17   12   13 1   
    18   12   14 1   
    19   19   20 1   
    20   19   24 1   
    21   20   21 1   
    22   20   23 1   
    23   20   25 1   
    24   21   22 2   
    25   21   29 1   
    26   23   26 1   
    27   23   27 1   
    28   23   28 1   
    29   29   30 1   
    30   29   37 1   
    31   30   31 1   
    32   30   33 1   
    33   30   38 1   
    34   31   32 2   
    35   31   41 1   
    36   33   34 1   
    37   33   39 1   
    38   33   40 1   
    39   34   35 1   
    40   34   36 1   
    41   41   42 1   
    42   41   45 1   
    43   42   43 1   
    44   42   46 1   
    45   42   47 1   
    46   43   44 2   
    47   43   48 1   
    48   48   49 1   
    49   48   56 1   
    50   49   50 1   
    51   49   52 1   
    52   49   57 1   
    53   50   51 2   
    54   50   62 1   
    55   52   53 1   
    56   52   58 1   
    57   52   59 1   
    58   53   54 1   
    59   53   55 2   
    60   54   60 1   
    61   54   61 1   
    62   62   63 1   
    63   62   66 1   
    64   63   64 1   
    65   63   67 1   
    66   63   68 1   
    67   64   65 2   
    68   64   69 1   
    69   69   70 1   
    70   69   76 1   
    71   70   71 1   
    72   70   73 1   
    73   70   77 1   
    74   71   72 2   
    75   71   83 1   
    76   73   74 1   
    77   73   75 1   
    78   73   78 1   
    79   74   80 1   
    80   74   81 1   
    81   74   82 1   
    82   75   79 1   
    83   83   84 1   
    84   83   91 1   
    85   84   85 1   
    86   84   87 1   
    87   84   92 1   
    88   85   86 2   
    89   85  102 1   
    90   87   88 1   
    91   87   89 1   
    92   87   93 1   
    93   88   90 1   
    94   88   94 1   
    95   88   95 1   
    96   89   96 1   
    97   89   97 1   
    98   89   98 1   
    99   90   99 1   
   100   90  100 1   
   101   90  101 1   
   102  102  103 1   
   103  102  110 1   
   104  103  104 1   
   105  103  106 1   
   106  103  111 1   
   107  104  105 2   
   108  104  114 1   
   109  106  107 1   
   110  106  112 1   
   111  106  113 1   
   112  107  108 1   
   113  107  109 1   
   114  114  115 1   
   115  114  125 1   
   116  115  116 1   
   117  115  118 1   
   118  115  126 1   
   119  116  117 2   
   120  116  134 1   
   121  118  119 1   
   122  118  127 1   
   123  118  128 1   
   124  119  120 ar  
   125  119  121 ar  
   126  120  122 ar  
   127  120  129 1   
   128  121  123 ar  
   129  121  130 1   
   130  122  124 ar  
   131  122  131 1   
   132  123  124 ar  
   133  123  132 1   
   134  124  133 1   
   135  134  135 1   
   136  134  140 1   
   137  135  136 1   
   138  135  138 1   
   139  135  141 1   
   140  136  137 2   
   141  136  148 1   
   142  138  139 1   
   143  138  142 1   
   144  138  143 1   
   145  139  140 1   
   146  139  144 1   
   147  139  145 1   
   148  140  146 1   
   149  140  147 1   
   150  148  149 1   
   151  148  157 1   
   152  149  150 1   
   153  149  152 1   
   154  149  158 1   
   155  150  151 2   
   156  150  163 1   
   157  152  153 1   
   158  152  159 1   
   159  152  160 1   
   160  153  154 1   
   161  153  161 1   
   162  153  162 1   
   163  154  155 1   
   164  154  156 1   
   165  163  164 1   
   166  163  168 1   
   167  164  165 1   
   168  164  166 1   
   169  164  167 1   
   170  170  171 1   
   171  170  172 1   
   172  173  174 1   
   173  173  175 1   
   174  176  177 1   
   175  176  178 1   
   176  179  180 1   
   177  179  181 1   
@<TRIPOS>SUBSTRUCTURE
     1 MOL         1 TEMP              0 ****  ****    0 ROOT
