@<TRIPOS>MOLECULE
MOL
  189   185     1     0     0
SMALL
resp


@<TRIPOS>ATOM
      1 C1         -7.3820   -1.1960   -3.9260 c3        1 MOL     -0.546382
      2 C2         -7.2960   -0.6470   -2.4830 c         1 MOL      0.746044
      3 O1         -6.3660   -0.0250   -1.9790 o         1 MOL     -0.620363
      4 H1         -6.3880   -1.4960   -4.2600 hc        1 MOL      0.141492
      5 H2         -8.0480   -2.0590   -3.9480 hc        1 MOL      0.141492
      6 H3         -7.7680   -0.4210   -4.5880 hc        1 MOL      0.141492
      7 N1         -8.4020   -0.8860   -1.7720 n         1 MOL     -0.291549
      8 C3         -8.5990   -0.3710   -0.4250 c3        1 MOL     -0.343157
      9 C4         -7.9880   -1.2060    0.6710 c         1 MOL      0.570954
     10 O2         -8.5860   -1.4390    1.6920 o         1 MOL     -0.496738
     11 C5        -10.0450    0.0390   -0.1450 c3        1 MOL      0.150929
     12 C6        -10.9500   -1.1710   -0.2890 c         1 MOL      0.666670
     13 O3        -11.4160   -1.7300    0.7350 o         1 MOL     -0.704627
     14 O4        -11.4120   -1.3940   -1.4360 o         1 MOL     -0.704627
     15 H4         -9.0940   -1.5230   -2.1260 hn        1 MOL      0.110841
     16 H5         -7.9850    0.5230   -0.3780 h1        1 MOL      0.144600
     17 H6        -10.4020    0.8870   -0.7290 hc        1 MOL     -0.009607
     18 H7        -10.1760    0.4540    0.8480 hc        1 MOL     -0.009607
     19 N2         -6.7770   -1.7630    0.4800 n         1 MOL     -0.276556
     20 C7         -6.1480   -2.7570    1.3940 c3        1 MOL     -0.038118
     21 C8         -5.0510   -2.2370    2.3560 c         1 MOL      0.520404
     22 O5         -4.8070   -2.8170    3.4000 o         1 MOL     -0.554114
     23 C9         -5.5840   -3.8500    0.5340 c3        1 MOL      0.058356
     24 C10        -6.5800   -4.9750    0.0700 c3        1 MOL     -0.252935
     25 C11        -7.7660   -4.5570   -0.7830 c3        1 MOL     -0.244220
     26 C12        -8.5880   -5.7860   -1.2050 c3        1 MOL      0.354616
     27 N3        -10.0160   -5.4410   -1.5020 n4        1 MOL     -0.609368
     28 H8         -6.2150   -1.3990   -0.2720 hn        1 MOL      0.170896
     29 H9         -6.9600   -3.1200    2.0350 h1        1 MOL      0.103313
     30 H10        -4.9490   -4.3500    1.2650 hc        1 MOL      0.032002
     31 H11        -4.9370   -3.4910   -0.2690 hc        1 MOL      0.032002
     32 H12        -7.0980   -5.4560    0.9040 hc        1 MOL      0.109438
     33 H13        -6.0310   -5.8000   -0.3760 hc        1 MOL      0.109438
     34 H14        -7.6180   -3.9790   -1.6960 hc        1 MOL      0.108952
     35 H15        -8.4390   -4.0440   -0.0960 hc        1 MOL      0.108952
     36 H16        -8.5190   -6.5240   -0.4160 hx        1 MOL     -0.003379
     37 H17        -8.1190   -6.3150   -2.0440 hx        1 MOL     -0.003379
     38 H18       -10.5950   -5.2560   -0.6960 hn        1 MOL      0.378755
     39 H19       -10.0000   -4.6710   -2.1700 hn        1 MOL      0.378755
     40 H20       -10.4620   -6.2330   -1.9370 hn        1 MOL      0.378755
     41 N4         -4.2530   -1.1930    2.1800 n         1 MOL     -0.367515
     42 C13        -4.0980   -0.4030    0.9600 c3        1 MOL      0.039957
     43 C14        -3.6700    1.0270    1.4430 c         1 MOL      0.422910
     44 O6         -3.1620    1.2550    2.5260 o         1 MOL     -0.421125
     45 C15        -2.9920   -0.9150    0.0150 c3        1 MOL      0.051122
     46 C16        -1.6450   -1.2560    0.5970 c         1 MOL      0.623881
     47 O7         -0.9580   -0.4400    1.3060 o         1 MOL     -0.678101
     48 O8         -1.1660   -2.3330    0.1460 o         1 MOL     -0.678101
     49 H21        -3.6270   -1.0210    2.9470 hn        1 MOL      0.286180
     50 H22        -5.0490   -0.2460    0.4610 h1        1 MOL     -0.000603
     51 H23        -2.8330   -0.1410   -0.7390 hc        1 MOL     -0.006639
     52 H24        -3.3250   -1.8360   -0.4650 hc        1 MOL     -0.006639
     53 N5         -3.9610    2.0370    0.5420 n         1 MOL     -0.332862
     54 C17        -3.6120    3.4510    0.7740 c3        1 MOL     -0.363970
     55 C18        -2.1430    3.7920    1.2330 c         1 MOL      0.927659
     56 O9         -1.1940    2.9700    1.1150 o         1 MOL     -0.789865
     57 H25        -4.2970    1.8840   -0.3940 hn        1 MOL      0.314350
     58 H26        -4.3760    3.8640    1.4490 h1        1 MOL      0.139437
     59 H27        -3.6420    3.8730   -0.2270 h1        1 MOL      0.139437
     60 N6         -1.9100    5.0790    1.5820 n         1 MOL     -0.774308
     61 C19        -0.5960    5.6990    1.8320 c3        1 MOL      0.835399
     62 C20        -0.6210    7.1450    1.3610 c         1 MOL      0.214552
     63 O10        -1.7370    7.6210    1.0900 o         1 MOL     -0.517885
     64 C21        -0.1250    5.5500    3.3280 c3        1 MOL     -0.419811
     65 C22         0.1810    4.0990    3.7710 c         1 MOL      0.699111
     66 O11         0.9470    3.4010    3.1360 o         1 MOL     -0.659208
     67 O12        -0.3490    3.6440    4.8170 o         1 MOL     -0.659208
     68 H28        -2.7390    5.6030    1.8090 hn        1 MOL      0.315361
     69 H29         0.1280    5.1860    1.1970 h1        1 MOL     -0.149227
     70 H30        -0.8870    6.0070    3.9630 hc        1 MOL      0.072636
     71 H31         0.7340    6.2100    3.4800 hc        1 MOL      0.072636
     72 N7          0.4300    7.9490    1.2130 n         1 MOL     -0.316649
     73 C23         1.8090    7.5250    1.1940 c3        1 MOL     -0.214086
     74 C24         2.1410    6.6670   -0.0850 c         1 MOL      0.624234
     75 O13         1.6600    7.0150   -1.1480 o         1 MOL     -0.512698
     76 H32         0.2410    8.9380    1.2150 hn        1 MOL      0.326697
     77 H33         2.0810    7.0300    2.1190 h1        1 MOL      0.102271
     78 H34         2.2730    8.5140    1.0660 h1        1 MOL      0.102271
     79 N8          3.0410    5.6540   -0.0090 n         1 MOL     -0.543537
     80 C25         3.3200    4.6940   -1.1340 c3        1 MOL      0.031102
     81 C26         2.2350    3.5700   -1.1900 c         1 MOL      0.798733
     82 O14         1.6920    3.2400   -0.0890 o         1 MOL     -0.697078
     83 C27         4.8330    4.1830   -1.0590 c3        1 MOL      0.215277
     84 C28         5.1490    3.0700   -2.0580 c3        1 MOL     -0.414318
     85 O15         4.9310    3.5140    0.2440 oh        1 MOL     -0.608848
     86 H35         3.4570    5.4300    0.8810 hn        1 MOL      0.328615
     87 H36         3.1610    5.2840   -2.0370 h1        1 MOL      0.046713
     88 H37         5.5040    5.0300   -1.1610 h1        1 MOL      0.069278
     89 H38         5.8380    3.2230    0.2960 ho        1 MOL      0.402674
     90 H39         5.3570    3.4170   -3.0610 hc        1 MOL      0.113571
     91 H40         6.0070    2.4900   -1.7110 hc        1 MOL      0.113571
     92 H41         4.3180    2.3630   -2.0820 hc        1 MOL      0.113571
     93 N9          1.8780    3.1710   -2.4430 n         1 MOL     -0.381160
     94 C29         0.7900    2.3140   -2.8010 c3        1 MOL     -0.241909
     95 C30         0.9100    0.9010   -2.2750 c         1 MOL      0.594094
     96 O16         0.8730    0.7080   -1.0620 o         1 MOL     -0.605787
     97 C31        -0.5900    2.9050   -2.5510 c3        1 MOL      0.210245
     98 C32        -0.7800    4.4010   -3.0430 c3        1 MOL     -0.090905
     99 C33        -1.7500    2.0600   -3.1590 c3        1 MOL     -0.482466
    100 C34        -1.3860    5.3990   -2.0820 c3        1 MOL     -0.095927
    101 H42         2.4520    3.5900   -3.1680 hn        1 MOL      0.268174
    102 H43         0.8090    2.0970   -3.8680 h1        1 MOL      0.085369
    103 H44        -0.7080    2.8540   -1.4630 hc        1 MOL      0.080383
    104 H45        -1.1420    4.4990   -4.0710 hc        1 MOL      0.020893
    105 H46         0.2440    4.7640   -3.1400 hc        1 MOL      0.020893
    106 H47        -2.6770    2.6140   -3.0440 hc        1 MOL      0.130098
    107 H48        -1.4330    1.9420   -4.1970 hc        1 MOL      0.130098
    108 H49        -1.7530    1.0880   -2.6650 hc        1 MOL      0.130098
    109 H50        -0.7760    5.5630   -1.1890 hc        1 MOL      0.043294
    110 H51        -1.5510    6.3760   -2.5330 hc        1 MOL      0.043294
    111 H52        -2.2900    4.9500   -1.6600 hc        1 MOL      0.043294
    112 N10         1.1310   -0.1500   -3.0980 n         1 MOL     -0.272532
    113 C35         1.2550   -1.5590   -2.7270 c3        1 MOL     -0.040157
    114 C36         2.5790   -2.2150   -3.2280 c         1 MOL      0.363831
    115 O17         2.6990   -3.4180   -3.3110 o         1 MOL     -0.513082
    116 C37        -0.0100   -2.2910   -3.2990 c3        1 MOL      0.572442
    117 C38        -0.3070   -1.8670   -4.7300 c3        1 MOL     -0.497105
    118 O18        -1.1030   -1.8630   -2.5420 oh        1 MOL     -0.624332
    119 H53         0.9820    0.0240   -4.0860 hn        1 MOL      0.205189
    120 H54         1.3470   -1.7940   -1.6700 h1        1 MOL      0.121620
    121 H55         0.0960   -3.3660   -3.1850 h1        1 MOL     -0.035128
    122 H56        -0.8670   -2.0860   -1.6390 ho        1 MOL      0.334785
    123 H57         0.5970   -2.0190   -5.3220 hc        1 MOL      0.114153
    124 H58        -1.0870   -2.5790   -5.0210 hc        1 MOL      0.114153
    125 H59        -0.5560   -0.8210   -4.8580 hc        1 MOL      0.114153
    126 N11         3.6470   -1.3960   -3.3130 n         1 MOL     -0.265283
    127 C39         5.0550   -1.8390   -3.1870 c3        1 MOL      0.019905
    128 C40         5.4430   -1.7040   -1.6830 c         1 MOL      0.668313
    129 O19         5.1050   -0.6970   -1.0930 o         1 MOL     -0.488749
    130 C41         5.9090   -0.8670   -4.0360 c3        1 MOL      0.465361
    131 C42         5.6810   -0.8950   -5.5690 c3        1 MOL     -0.331437
    132 O20         5.8630    0.4610   -3.4540 oh        1 MOL     -0.637092
    133 H60         3.5540   -0.3960   -3.2600 hn        1 MOL      0.110934
    134 H61         5.2980   -2.8060   -3.6310 h1        1 MOL      0.020704
    135 H62         6.8980   -1.3130   -3.9080 h1        1 MOL     -0.042263
    136 H63         5.1680    0.9530   -3.9030 ho        1 MOL      0.367631
    137 H64         6.3860   -0.2050   -6.0150 hc        1 MOL      0.081993
    138 H65         6.0180   -1.8900   -5.8840 hc        1 MOL      0.081993
    139 H66         4.6280   -0.8070   -5.8550 hc        1 MOL      0.081993
    140 N12         6.2270   -2.6800   -1.2010 n         1 MOL     -0.670071
    141 C43         6.8430   -2.6420    0.1600 c3        1 MOL      0.276059
    142 C44         5.8350   -2.2600    1.2000 c         1 MOL      0.472555
    143 O21         6.0540   -1.3110    1.9300 o         1 MOL     -0.525005
    144 C45         8.1810   -1.8880    0.1850 c3        1 MOL     -0.521391
    145 C46         9.2310   -2.4840   -0.6710 c3        1 MOL     -0.029530
    146 C47         9.8060   -3.8040   -0.0700 c3        1 MOL      0.033782
    147 C48        10.8490   -4.2920   -1.0560 c3        1 MOL      0.098781
    148 N13        11.1760   -5.7050   -0.7940 n4        1 MOL     -0.266895
    149 H67         6.4290   -3.4700   -1.7990 hn        1 MOL      0.313280
    150 H68         6.9910   -3.6490    0.5570 h1        1 MOL      0.013947
    151 H69         8.4690   -1.8510    1.2350 hc        1 MOL      0.206296
    152 H70         7.9890   -0.8780   -0.1610 hc        1 MOL      0.206296
    153 H71        10.1200   -1.8500   -0.6370 hc        1 MOL      0.061917
    154 H72         8.8830   -2.7630   -1.6600 hc        1 MOL      0.061917
    155 H73         9.0760   -4.6010    0.0420 hc        1 MOL      0.025449
    156 H74        10.3410   -3.6660    0.8750 hc        1 MOL      0.025449
    157 H75        11.7300   -3.6670   -0.9110 hx        1 MOL      0.037977
    158 H76        10.5250   -4.1380   -2.0840 hx        1 MOL      0.037977
    159 H77        11.7950   -6.0870   -1.5070 hn        1 MOL      0.231198
    160 H78        11.6390   -5.7880    0.1050 hn        1 MOL      0.231198
    161 H79        10.3660   -6.2990   -0.8810 hn        1 MOL      0.231198
    162 N14         4.7010   -3.0480    1.3060 n         1 MOL     -0.495166
    163 C49         3.6420   -2.6730    2.2810 c3        1 MOL      0.320611
    164 C50         2.2340   -2.1840    1.6570 c         1 MOL      0.324256
    165 O22         1.9310   -1.0120    1.6670 o         1 MOL     -0.666874
    166 C51         3.5630   -3.6710    3.4280 c3        1 MOL      0.053933
    167 C52         4.7190   -3.6030    4.3780 c3        1 MOL     -0.249711
    168 C53         4.7340   -4.7300    5.4100 c         1 MOL      0.693852
    169 O23         5.2210   -5.8730    5.1300 o         1 MOL     -0.638040
    170 O24         4.2660   -4.4960    6.5590 o         1 MOL     -0.638040
    171 H80         4.5000   -3.8310    0.7030 hn        1 MOL      0.268205
    172 H81         4.0770   -1.8310    2.8270 h1        1 MOL      0.041676
    173 H82         3.4450   -4.6700    3.0060 hc        1 MOL     -0.002193
    174 H83         2.6100   -3.4810    3.9150 hc        1 MOL     -0.002193
    175 H84         4.6720   -2.6290    4.8590 hc        1 MOL      0.047662
    176 H85         5.6540   -3.8230    3.8610 hc        1 MOL      0.047662
    177 N15         1.3300   -3.0320    1.1420 n         1 MOL     -0.215811
    178 C54         1.2940   -4.5070    1.0070 c3        1 MOL     -0.100628
    179 H86         0.2610   -4.8500    1.0580 h1        1 MOL      0.054468
    180 H87         1.7260   -4.7950    0.0490 h1        1 MOL      0.054468
    181 H88         1.8670   -4.9610    1.8150 h1        1 MOL      0.054468
    182 H89         0.4780   -2.5440    0.9170 hn        1 MOL      0.307180
    183 Ca1         0.8100    1.2950    1.4570 Ca        1 MOL      1.858718
    184 O25         0.5420    0.4500    4.0560 oh        1 MOL     -0.865269
    185 H90         1.1520    0.3650    4.7840 ho        1 MOL      0.426059
    186 H91        -0.1080   -0.2360    4.1980 ho        1 MOL      0.426059
    187 O26         3.4350    1.7270    1.7370 oh        1 MOL     -0.865269
    188 H92         3.9760    1.5200    2.4960 ho        1 MOL      0.426059
    189 H93         4.0560    1.9430    1.0520 ho        1 MOL      0.426059
@<TRIPOS>BOND
     1    1    2 1   
     2    1    4 1   
     3    1    5 1   
     4    1    6 1   
     5    2    3 2   
     6    2    7 1   
     7    7    8 1   
     8    7   15 1   
     9    8    9 1   
    10    8   11 1   
    11    8   16 1   
    12    9   10 2   
    13    9   19 1   
    14   11   12 1   
    15   11   17 1   
    16   11   18 1   
    17   12   13 1   
    18   12   14 1   
    19   19   20 1   
    20   19   28 1   
    21   20   21 1   
    22   20   23 1   
    23   20   29 1   
    24   21   22 2   
    25   21   41 1   
    26   23   24 1   
    27   23   30 1   
    28   23   31 1   
    29   24   25 1   
    30   24   32 1   
    31   24   33 1   
    32   25   26 1   
    33   25   34 1   
    34   25   35 1   
    35   26   27 1   
    36   26   36 1   
    37   26   37 1   
    38   27   38 1   
    39   27   39 1   
    40   27   40 1   
    41   41   42 1   
    42   41   49 1   
    43   42   43 1   
    44   42   45 1   
    45   42   50 1   
    46   43   44 2   
    47   43   53 1   
    48   45   46 1   
    49   45   51 1   
    50   45   52 1   
    51   46   47 1   
    52   46   48 1   
    53   53   54 1   
    54   53   57 1   
    55   54   55 1   
    56   54   58 1   
    57   54   59 1   
    58   55   56 2   
    59   55   60 1   
    60   60   61 1   
    61   60   68 1   
    62   61   62 1   
    63   61   64 1   
    64   61   69 1   
    65   62   63 2   
    66   62   72 1   
    67   64   65 1   
    68   64   70 1   
    69   64   71 1   
    70   65   66 1   
    71   65   67 1   
    72   72   73 1   
    73   72   76 1   
    74   73   74 1   
    75   73   77 1   
    76   73   78 1   
    77   74   75 2   
    78   74   79 1   
    79   79   80 1   
    80   79   86 1   
    81   80   81 1   
    82   80   83 1   
    83   80   87 1   
    84   81   82 2   
    85   81   93 1   
    86   83   84 1   
    87   83   85 1   
    88   83   88 1   
    89   84   90 1   
    90   84   91 1   
    91   84   92 1   
    92   85   89 1   
    93   93   94 1   
    94   93  101 1   
    95   94   95 1   
    96   94   97 1   
    97   94  102 1   
    98   95   96 2   
    99   95  112 1   
   100   97   98 1   
   101   97   99 1   
   102   97  103 1   
   103   98  100 1   
   104   98  104 1   
   105   98  105 1   
   106   99  106 1   
   107   99  107 1   
   108   99  108 1   
   109  100  109 1   
   110  100  110 1   
   111  100  111 1   
   112  112  113 1   
   113  112  119 1   
   114  113  114 1   
   115  113  116 1   
   116  113  120 1   
   117  114  115 2   
   118  114  126 1   
   119  116  117 1   
   120  116  118 1   
   121  116  121 1   
   122  117  123 1   
   123  117  124 1   
   124  117  125 1   
   125  118  122 1   
   126  126  127 1   
   127  126  133 1   
   128  127  128 1   
   129  127  130 1   
   130  127  134 1   
   131  128  129 2   
   132  128  140 1   
   133  130  131 1   
   134  130  132 1   
   135  130  135 1   
   136  131  137 1   
   137  131  138 1   
   138  131  139 1   
   139  132  136 1   
   140  140  141 1   
   141  140  149 1   
   142  141  142 1   
   143  141  144 1   
   144  141  150 1   
   145  142  143 2   
   146  142  162 1   
   147  144  145 1   
   148  144  151 1   
   149  144  152 1   
   150  145  146 1   
   151  145  153 1   
   152  145  154 1   
   153  146  147 1   
   154  146  155 1   
   155  146  156 1   
   156  147  148 1   
   157  147  157 1   
   158  147  158 1   
   159  148  159 1   
   160  148  160 1   
   161  148  161 1   
   162  162  163 1   
   163  162  171 1   
   164  163  164 1   
   165  163  166 1   
   166  163  172 1   
   167  164  165 2   
   168  164  177 1   
   169  166  167 1   
   170  166  173 1   
   171  166  174 1   
   172  167  168 1   
   173  167  175 1   
   174  167  176 1   
   175  168  169 1   
   176  168  170 1   
   177  177  178 1   
   178  177  182 1   
   179  178  179 1   
   180  178  180 1   
   181  178  181 1   
   182  184  185 1   
   183  184  186 1   
   184  187  188 1   
   185  187  189 1   
@<TRIPOS>SUBSTRUCTURE
     1 MOL         1 TEMP              0 ****  ****    0 ROOT
