@<TRIPOS>MOLECULE
MOL
  192   187     1     0     0
SMALL
resp


@<TRIPOS>ATOM
      1 C1          5.0650    3.7180   -3.7860 c3        1 MOL     -0.405534
      2 C2          5.7280    2.8990   -2.6350 c         1 MOL      0.702601
      3 O1          5.1490    2.7660   -1.5550 o         1 MOL     -0.569124
      4 H1          5.7550    4.4890   -4.1270 hc        1 MOL      0.109099
      5 H2          4.8260    3.0520   -4.6160 hc        1 MOL      0.109099
      6 H3          4.1500    4.1860   -3.4210 hc        1 MOL      0.109099
      7 N1          7.0440    2.5470   -2.6920 n         1 MOL     -0.611322
      8 C3          7.6040    1.5120   -1.7530 c3        1 MOL      0.241362
      9 C4          6.5880    0.4050   -1.4020 c         1 MOL      0.537794
     10 O2          6.0540    0.2760   -0.2720 o         1 MOL     -0.599186
     11 C5          8.5130    2.0020   -0.6300 c3        1 MOL     -0.121844
     12 C6          7.8740    3.1780    0.0950 c         1 MOL      0.690895
     13 O3          7.0280    2.9190    1.0690 o         1 MOL     -0.710813
     14 O4          8.2630    4.3670   -0.0540 o         1 MOL     -0.710813
     15 H4          7.5020    2.6510   -3.5950 hn        1 MOL      0.294786
     16 H5          8.2620    0.8830   -2.3680 h1        1 MOL     -0.012091
     17 H6          9.4520    2.3700   -1.0420 hc        1 MOL      0.027432
     18 H7          8.6870    1.1900    0.0730 hc        1 MOL      0.027432
     19 N2          6.1610   -0.2720   -2.4240 n         1 MOL     -0.475140
     20 C7          5.2710   -1.4120   -2.5320 c3        1 MOL      0.137471
     21 C8          5.7260   -2.6570   -1.8190 c         1 MOL      0.432795
     22 O5          5.9220   -3.5860   -2.5440 o         1 MOL     -0.548009
     23 C9          3.8190   -1.0040   -2.3020 c3        1 MOL      0.178474
     24 C10         2.7580   -2.1650   -2.6190 c3        1 MOL      0.045925
     25 C11         3.3720    0.2330   -3.0350 c3        1 MOL     -0.107714
     26 C12         2.7930   -2.8110   -4.0240 c3        1 MOL     -0.478815
     27 H8          6.4260    0.0840   -3.3390 hn        1 MOL      0.245415
     28 H9          5.2160   -1.6940   -3.5790 h1        1 MOL      0.014754
     29 H10         3.6770   -0.8200   -1.2380 hc        1 MOL     -0.232955
     30 H11         1.7580   -1.7420   -2.5880 hc        1 MOL      0.103348
     31 H12         2.7920   -3.0040   -1.9250 hc        1 MOL      0.103348
     32 H13         3.7010    1.0220   -2.3540 hc        1 MOL      0.006749
     33 H14         3.7590    0.3250   -4.0470 hc        1 MOL      0.006749
     34 H15         2.2860    0.2810   -3.1110 hc        1 MOL      0.006749
     35 H16         2.3880   -2.1270   -4.7700 hc        1 MOL      0.101473
     36 H17         3.7980   -3.1930   -4.1850 hc        1 MOL      0.101473
     37 H18         2.1450   -3.6950   -4.0270 hc        1 MOL      0.101473
     38 N3          5.7320   -2.6750   -0.4750 n         1 MOL     -0.096302
     39 C13         6.4640   -3.6700    0.2980 c3        1 MOL     -0.117029
     40 C14         5.6740   -4.9350    0.5270 c         1 MOL      0.588833
     41 O6          6.2380   -6.0290    0.3880 o         1 MOL     -0.582809
     42 C15         6.9270   -3.0440    1.6390 c3        1 MOL     -0.169216
     43 C16         8.0530   -2.0280    1.4530 c         1 MOL      0.776460
     44 O7          7.9600   -1.0220    2.1350 o         1 MOL     -0.724401
     45 O8          9.0000   -2.2420    0.6790 o         1 MOL     -0.724401
     46 H19         5.4650   -1.7860   -0.0680 hn        1 MOL      0.206236
     47 H20         7.3080   -3.9570   -0.3240 h1        1 MOL      0.079405
     48 H21         7.3700   -3.8460    2.2150 hc        1 MOL      0.060969
     49 H22         6.0280   -2.6800    2.1520 hc        1 MOL      0.060969
     50 N4          4.3550   -4.9050    0.8200 n         1 MOL     -0.550950
     51 C17         3.4040   -3.7530    1.0410 c3        1 MOL      0.211160
     52 C18         2.1940   -4.0220    1.8940 c         1 MOL      0.636525
     53 O9          1.5910   -5.0260    1.7880 o         1 MOL     -0.604414
     54 H23         3.9450   -5.8320    0.8730 hn        1 MOL      0.290719
     55 H24         2.9630   -3.3600    0.1230 h1        1 MOL     -0.025880
     56 H25         3.8900   -2.9450    1.5890 h1        1 MOL     -0.025880
     57 N5          1.7460   -3.0830    2.7130 n         1 MOL     -0.430538
     58 C19         2.2150   -1.6380    2.9690 c3        1 MOL      0.061622
     59 C20         2.4070   -0.7480    1.7370 c         1 MOL      0.692838
     60 O10         3.4760   -0.4060    1.3150 o         1 MOL     -0.512117
     61 C21         3.3340   -1.4300    4.0620 c3        1 MOL     -0.699617
     62 C22         3.2830   -2.3100    5.2890 c         1 MOL      0.874153
     63 O11         4.0910   -3.2350    5.4500 o         1 MOL     -0.754071
     64 O12         2.4650   -2.0930    6.2390 o         1 MOL     -0.754071
     65 H26         0.9000   -3.3340    3.1970 hn        1 MOL      0.274828
     66 H27         1.3060   -1.2910    3.4690 h1        1 MOL      0.058618
     67 H28         3.3990   -0.3720    4.3420 hc        1 MOL      0.184360
     68 H29         4.2760   -1.6500    3.5440 hc        1 MOL      0.184360
     69 N6          1.3390   -0.4230    0.9580 n         1 MOL     -0.544435
     70 C23        -0.0710   -0.9790    1.1200 c3        1 MOL     -0.075347
     71 C24        -0.2890   -2.2050    0.2570 c         1 MOL      0.688156
     72 O13         0.4710   -2.5470   -0.6200 o         1 MOL     -0.576640
     73 H30         1.5070    0.2020    0.1920 hn        1 MOL      0.356610
     74 H31        -0.7570   -0.1790    0.8300 h1        1 MOL      0.062230
     75 H32        -0.3700   -1.2640    2.1260 h1        1 MOL      0.062230
     76 N7         -1.3110   -2.9530    0.6970 n         1 MOL     -0.483579
     77 C25        -1.7600   -4.1720    0.0370 c3        1 MOL     -0.151824
     78 C26        -2.5450   -4.0850   -1.3190 c         1 MOL      0.447423
     79 O14        -2.6450   -5.0530   -2.0020 o         1 MOL     -0.525774
     80 C27        -2.5000   -5.2360    0.9410 c3        1 MOL      0.316029
     81 C28        -3.6320   -4.6870    1.9080 c3        1 MOL     -0.252997
     82 C29        -4.8200   -4.1990    1.0970 c         1 MOL      0.659625
     83 N8         -5.7860   -5.0560    0.7540 n         1 MOL     -0.715089
     84 O15        -4.7540   -3.1040    0.6080 o         1 MOL     -0.590972
     85 H33        -1.8110   -2.6840    1.5300 hn        1 MOL      0.280859
     86 H34        -0.8900   -4.7130   -0.3270 h1        1 MOL      0.153549
     87 H35        -1.7080   -5.7070    1.5240 hc        1 MOL     -0.046127
     88 H36        -2.8910   -6.0430    0.3300 hc        1 MOL     -0.046127
     89 H37        -3.1830   -3.8850    2.4950 hc        1 MOL      0.056801
     90 H38        -3.9250   -5.5050    2.5630 hc        1 MOL      0.056801
     91 H39        -5.8090   -6.0340    1.0300 hn        1 MOL      0.341747
     92 H40        -6.5510   -4.7450    0.1770 hn        1 MOL      0.341747
     93 N9         -2.9540   -2.8950   -1.8000 n         1 MOL     -0.073333
     94 C30        -3.4140   -2.5990   -3.1470 c3        1 MOL     -0.334474
     95 C31        -4.7250   -1.9240   -3.2060 c         1 MOL      0.671778
     96 O16        -5.2210   -1.8710   -4.3050 o         1 MOL     -0.590186
     97 C32        -2.3260   -1.7880   -3.9960 c3        1 MOL      0.341685
     98 C33        -1.2390   -2.7900   -4.3970 c3        1 MOL     -0.343729
     99 C34        -1.6520   -0.6360   -3.2360 c3        1 MOL     -0.343729
    100 H41        -2.7960   -2.1620   -1.1360 hn        1 MOL      0.140874
    101 H42        -3.5420   -3.5420   -3.6950 h1        1 MOL      0.151626
    102 H43        -2.8140   -1.4370   -4.9020 hc        1 MOL     -0.005386
    103 H44        -0.5670   -2.2960   -5.1110 hc        1 MOL      0.078383
    104 H45        -0.7130   -3.2450   -3.5570 hc        1 MOL      0.078383
    105 H46        -1.7680   -3.6070   -4.8820 hc        1 MOL      0.078383
    106 H47        -1.1340   -1.0120   -2.3430 hc        1 MOL      0.078383
    107 H48        -0.9760   -0.1030   -3.8910 hc        1 MOL      0.078383
    108 H49        -2.4230    0.0970   -3.0020 hc        1 MOL      0.078383
    109 N10        -5.3030   -1.3800   -2.1390 n         1 MOL     -0.531885
    110 C35        -6.6820   -1.0030   -1.9900 c3        1 MOL      0.124168
    111 C36        -6.9130    0.2970   -1.1680 c         1 MOL      0.611736
    112 O17        -7.9490    0.9260   -1.4050 o         1 MOL     -0.570761
    113 C37        -7.5330   -2.0280   -1.2710 c3        1 MOL     -0.466192
    114 C38        -7.8930   -3.3930   -1.9040 c         1 MOL      0.697348
    115 N11        -7.8010   -3.5110   -3.2260 n         1 MOL     -0.765286
    116 O18        -8.2400   -4.3750   -1.2570 o         1 MOL     -0.594185
    117 H50        -4.7600   -1.4990   -1.2900 hn        1 MOL      0.305307
    118 H51        -7.0150   -0.7630   -3.0000 h1        1 MOL      0.068220
    119 H52        -8.4580   -1.4930   -1.0550 hc        1 MOL      0.163793
    120 H53        -7.1610   -2.2350   -0.2670 hc        1 MOL      0.163793
    121 H54        -7.3770   -2.7260   -3.6890 hn        1 MOL      0.368309
    122 H55        -7.9700   -4.4360   -3.5810 hn        1 MOL      0.368309
    123 N12        -5.9840    0.6930   -0.2780 n         1 MOL     -0.565717
    124 C39        -6.0940    1.9310    0.4300 c3        1 MOL      0.315903
    125 C40        -4.7870    2.6820    0.4290 c         1 MOL      0.341156
    126 O19        -3.6790    2.0780    0.1960 o         1 MOL     -0.497889
    127 C41        -6.6200    1.6920    1.8980 c3        1 MOL      0.131928
    128 C42        -7.6610    0.5930    2.1030 ca        1 MOL     -0.153474
    129 C43        -9.0310    0.9700    2.0310 ca        1 MOL     -0.054150
    130 C44        -7.3110   -0.7780    2.2200 ca        1 MOL     -0.054150
    131 C45        -9.9710   -0.0110    2.1850 ca        1 MOL     -0.250929
    132 C46        -8.2940   -1.7370    2.3570 ca        1 MOL     -0.250929
    133 C47        -9.6470   -1.3440    2.3650 ca        1 MOL      0.328972
    134 O20       -10.5890   -2.3200    2.6050 oh        1 MOL     -0.510212
    135 H56        -5.1180    0.1890   -0.1720 hn        1 MOL      0.262569
    136 H57        -6.8950    2.5610    0.0290 h1        1 MOL      0.004563
    137 H58        -7.0800    2.6010    2.2900 hc        1 MOL      0.000447
    138 H59        -5.7800    1.4930    2.5610 hc        1 MOL      0.000447
    139 H60        -9.3500    1.9980    1.8820 ha        1 MOL      0.117362
    140 H61        -6.2760   -1.0640    2.2890 ha        1 MOL      0.117362
    141 H62       -11.0120    0.2710    2.2520 ha        1 MOL      0.112372
    142 H63        -7.9770   -2.7460    2.5970 ha        1 MOL      0.112372
    143 H64       -11.4930   -1.9930    2.5510 ho        1 MOL      0.368490
    144 N13        -4.8400    3.9550    0.7190 n         1 MOL     -0.441925
    145 C48        -3.7840    4.9510    1.0120 c3        1 MOL      0.054976
    146 C49        -2.6050    5.1830    0.0350 c         1 MOL      0.452130
    147 O21        -1.9560    6.2470    0.1210 o         1 MOL     -0.520691
    148 C50        -3.2190    4.6650    2.4110 c3        1 MOL     -0.212040
    149 C51        -4.2550    4.7700    3.6410 c3        1 MOL     -0.309455
    150 C52        -4.7520    6.2280    3.7940 c         1 MOL      0.785913
    151 O22        -4.0790    7.0940    4.4320 o         1 MOL     -0.751142
    152 O23        -5.9200    6.5090    3.4960 o         1 MOL     -0.751142
    153 H65        -5.7840    4.2820    0.8670 hn        1 MOL      0.285523
    154 H66        -4.3520    5.8730    0.9430 h1        1 MOL      0.098265
    155 H67        -2.4470    5.4170    2.5860 hc        1 MOL      0.125125
    156 H68        -2.7920    3.6760    2.4560 hc        1 MOL      0.125125
    157 H69        -3.8830    4.4570    4.6050 hc        1 MOL      0.064030
    158 H70        -5.2050    4.2310    3.5810 hc        1 MOL      0.064030
    159 N14        -2.2910    4.2790   -0.8990 n         1 MOL     -0.315412
    160 C53        -1.1710    4.3240   -1.8400 c3        1 MOL     -0.062477
    161 C54        -1.4220    4.9240   -3.1890 c         1 MOL      0.429093
    162 O24        -0.4860    5.2060   -3.9600 o         1 MOL     -0.514015
    163 C55        -0.4260    2.9510   -1.9980 c3        1 MOL     -0.158771
    164 C56         0.1580    2.3240   -0.6530 c3        1 MOL      0.277416
    165 C57         1.4840    2.9560   -0.3130 c         1 MOL      0.731954
    166 O25         2.4290    2.1380   -0.2570 o         1 MOL     -0.707558
    167 O26         1.6070    4.2000   -0.2900 o         1 MOL     -0.707558
    168 H71        -2.8750    3.4620   -0.9380 hn        1 MOL      0.225186
    169 H72        -0.3000    4.9060   -1.5510 h1        1 MOL      0.165490
    170 H73         0.4250    3.1370   -2.6500 hc        1 MOL      0.046627
    171 H74        -1.1990    2.3250   -2.4290 hc        1 MOL      0.046627
    172 H75         0.2150    1.2360   -0.7300 hc        1 MOL     -0.108848
    173 H76        -0.4790    2.5460    0.2030 hc        1 MOL     -0.108848
    174 N15        -2.6860    5.2470   -3.5210 n         1 MOL     -0.199896
    175 C58        -3.0110    5.8550   -4.7900 c3        1 MOL     -0.271549
    176 H77        -2.3970    6.7440   -4.9340 h1        1 MOL      0.101857
    177 H78        -2.8160    5.1450   -5.5940 h1        1 MOL      0.101857
    178 H79        -4.0630    6.1360   -4.8010 h1        1 MOL      0.101857
    179 H80        -3.4980    5.1600   -2.9280 hn        1 MOL      0.222232
    180 Ca1         4.6190    2.0360    0.9670 Ca        1 MOL      1.824476
    181 O27         5.9920    0.6200    2.7320 oh        1 MOL     -0.894887
    182 H81         6.7350    0.0700    2.4940 ho        1 MOL      0.418601
    183 H82         6.0360    0.6850    3.6920 ho        1 MOL      0.418601
    184 O28         2.5160    2.3170    2.7670 oh        1 MOL     -0.894887
    185 H83         1.6270    2.6550    2.6620 ho        1 MOL      0.418601
    186 H84         2.8100    2.6510    3.6160 ho        1 MOL      0.418601
    187 O29         5.1040    3.7380    3.2680 oh        1 MOL     -0.894887
    188 H85         5.9210    4.2100    3.0820 ho        1 MOL      0.418601
    189 H86         4.6780    4.2580    3.9360 ho        1 MOL      0.418601
    190 O30         4.2770    4.6740    0.2440 oh        1 MOL     -0.894887
    191 H87         3.3570    4.6310   -0.0140 ho        1 MOL      0.418601
    192 H88         4.5870    5.4970   -0.1390 ho        1 MOL      0.418601
@<TRIPOS>BOND
     1    1    2 1   
     2    1    4 1   
     3    1    5 1   
     4    1    6 1   
     5    2    3 2   
     6    2    7 1   
     7    7    8 1   
     8    7   15 1   
     9    8    9 1   
    10    8   11 1   
    11    8   16 1   
    12    9   10 2   
    13    9   19 1   
    14   11   12 1   
    15   11   17 1   
    16   11   18 1   
    17   12   13 1   
    18   12   14 1   
    19   19   20 1   
    20   19   27 1   
    21   20   21 1   
    22   20   23 1   
    23   20   28 1   
    24   21   22 2   
    25   21   38 1   
    26   23   24 1   
    27   23   25 1   
    28   23   29 1   
    29   24   26 1   
    30   24   30 1   
    31   24   31 1   
    32   25   32 1   
    33   25   33 1   
    34   25   34 1   
    35   26   35 1   
    36   26   36 1   
    37   26   37 1   
    38   38   39 1   
    39   38   46 1   
    40   39   40 1   
    41   39   42 1   
    42   39   47 1   
    43   40   41 2   
    44   40   50 1   
    45   42   43 1   
    46   42   48 1   
    47   42   49 1   
    48   43   44 1   
    49   43   45 1   
    50   50   51 1   
    51   50   54 1   
    52   51   52 1   
    53   51   55 1   
    54   51   56 1   
    55   52   53 2   
    56   52   57 1   
    57   57   58 1   
    58   57   65 1   
    59   58   59 1   
    60   58   61 1   
    61   58   66 1   
    62   59   60 2   
    63   59   69 1   
    64   61   62 1   
    65   61   67 1   
    66   61   68 1   
    67   62   63 1   
    68   62   64 1   
    69   69   70 1   
    70   69   73 1   
    71   70   71 1   
    72   70   74 1   
    73   70   75 1   
    74   71   72 2   
    75   71   76 1   
    76   76   77 1   
    77   76   85 1   
    78   77   78 1   
    79   77   80 1   
    80   77   86 1   
    81   78   79 2   
    82   78   93 1   
    83   80   81 1   
    84   80   87 1   
    85   80   88 1   
    86   81   82 1   
    87   81   89 1   
    88   81   90 1   
    89   82   83 1   
    90   82   84 2   
    91   83   91 1   
    92   83   92 1   
    93   93   94 1   
    94   93  100 1   
    95   94   95 1   
    96   94   97 1   
    97   94  101 1   
    98   95   96 2   
    99   95  109 1   
   100   97   98 1   
   101   97   99 1   
   102   97  102 1   
   103   98  103 1   
   104   98  104 1   
   105   98  105 1   
   106   99  106 1   
   107   99  107 1   
   108   99  108 1   
   109  109  110 1   
   110  109  117 1   
   111  110  111 1   
   112  110  113 1   
   113  110  118 1   
   114  111  112 2   
   115  111  123 1   
   116  113  114 1   
   117  113  119 1   
   118  113  120 1   
   119  114  115 1   
   120  114  116 2   
   121  115  121 1   
   122  115  122 1   
   123  123  124 1   
   124  123  135 1   
   125  124  125 1   
   126  124  127 1   
   127  124  136 1   
   128  125  126 2   
   129  125  144 1   
   130  127  128 1   
   131  127  137 1   
   132  127  138 1   
   133  128  129 ar  
   134  128  130 ar  
   135  129  131 ar  
   136  129  139 1   
   137  130  132 ar  
   138  130  140 1   
   139  131  133 ar  
   140  131  141 1   
   141  132  133 ar  
   142  132  142 1   
   143  133  134 1   
   144  134  143 1   
   145  144  145 1   
   146  144  153 1   
   147  145  146 1   
   148  145  148 1   
   149  145  154 1   
   150  146  147 2   
   151  146  159 1   
   152  148  149 1   
   153  148  155 1   
   154  148  156 1   
   155  149  150 1   
   156  149  157 1   
   157  149  158 1   
   158  150  151 1   
   159  150  152 1   
   160  159  160 1   
   161  159  168 1   
   162  160  161 1   
   163  160  163 1   
   164  160  169 1   
   165  161  162 2   
   166  161  174 1   
   167  163  164 1   
   168  163  170 1   
   169  163  171 1   
   170  164  165 1   
   171  164  172 1   
   172  164  173 1   
   173  165  166 1   
   174  165  167 1   
   175  174  175 1   
   176  174  179 1   
   177  175  176 1   
   178  175  177 1   
   179  175  178 1   
   180  181  182 1   
   181  181  183 1   
   182  184  185 1   
   183  184  186 1   
   184  187  188 1   
   185  187  189 1   
   186  190  191 1   
   187  190  192 1   
@<TRIPOS>SUBSTRUCTURE
     1 MOL         1 TEMP              0 ****  ****    0 ROOT
