@<TRIPOS>MOLECULE
MOL
  188   182     1     0     0
SMALL
resp


@<TRIPOS>ATOM
      1 C1         -5.3700    1.2710   -3.9200 c3        1 MOL     -0.397335
      2 C2         -6.2720    1.2930   -2.5990 c         1 MOL      0.525916
      3 O1         -5.7200    1.2840   -1.4660 o         1 MOL     -0.426316
      4 H1         -4.7010    2.1320   -3.9160 hc        1 MOL      0.109992
      5 H2         -4.7820    0.3540   -3.9440 hc        1 MOL      0.109992
      6 H3         -6.0120    1.3140   -4.8000 hc        1 MOL      0.109992
      7 N1         -7.5880    1.4440   -2.7010 n         1 MOL     -0.515394
      8 C3         -8.5640    1.6270   -1.5940 c3        1 MOL      0.190465
      9 C4         -8.5840    0.5300   -0.4040 c         1 MOL      0.350531
     10 O2         -9.2660    0.7620    0.6780 o         1 MOL     -0.461589
     11 C5         -8.3960    3.0090   -0.9240 c3        1 MOL     -0.255365
     12 C6         -9.5620    3.6210   -0.1990 c         1 MOL      0.692651
     13 O3        -10.7000    3.3630   -0.6150 o         1 MOL     -0.670618
     14 O4         -9.3220    4.4210    0.7660 o         1 MOL     -0.670618
     15 H4         -7.9690    1.4140   -3.6350 hn        1 MOL      0.314420
     16 H5         -9.5440    1.5000   -2.0640 h1        1 MOL      0.041704
     17 H6         -8.2350    3.7130   -1.7490 hc        1 MOL      0.075764
     18 H7         -7.4680    3.0270   -0.3560 hc        1 MOL      0.075764
     19 N2         -7.9880   -0.6080   -0.6120 n         1 MOL     -0.300888
     20 C7         -7.8660   -1.7360    0.3670 c3        1 MOL      0.054566
     21 C8         -6.4440   -2.1930    0.6680 c         1 MOL      0.579856
     22 O5         -6.2720   -3.2130    1.2870 o         1 MOL     -0.536235
     23 C9         -8.6870   -2.9400   -0.1820 c3        1 MOL     -0.288909
     24 C10       -10.2130   -2.6980   -0.3150 c3        1 MOL      0.227287
     25 C11       -10.9850   -3.8410   -0.9810 c3        1 MOL     -0.134485
     26 C12       -11.1060   -4.9200    0.1020 c3        1 MOL      0.010320
     27 N3        -12.0120   -4.5620    1.2250 n4        1 MOL     -0.241433
     28 H8         -7.4260   -0.6250   -1.4560 hn        1 MOL      0.179301
     29 H9         -8.1950   -1.3230    1.3200 h1        1 MOL      0.107774
     30 H10        -8.5350   -3.8760    0.3660 hc        1 MOL      0.091222
     31 H11        -8.3890   -3.1030   -1.2110 hc        1 MOL      0.091222
     32 H12       -10.3500   -1.8360   -0.9610 hc        1 MOL     -0.021093
     33 H13       -10.7040   -2.3730    0.6080 hc        1 MOL     -0.021093
     34 H14       -10.3570   -4.2340   -1.7770 hc        1 MOL      0.064264
     35 H15       -11.9900   -3.5280   -1.2810 hc        1 MOL      0.064264
     36 H16       -10.0800   -5.0920    0.4260 hx        1 MOL      0.072336
     37 H17       -11.5560   -5.8000   -0.3640 hx        1 MOL      0.072336
     38 H18       -11.7740   -3.7080    1.7110 hn        1 MOL      0.266565
     39 H19       -12.9580   -4.3820    0.9220 hn        1 MOL      0.266565
     40 H20       -12.0650   -5.3610    1.8340 hn        1 MOL      0.266565
     41 N4         -5.3850   -1.4300    0.2200 n         1 MOL     -0.379575
     42 C13        -3.9480   -1.7700    0.2380 c3        1 MOL     -0.174491
     43 C14        -3.4010   -2.2930    1.5530 c         1 MOL      0.435221
     44 O6         -3.6780   -1.7270    2.6300 o         1 MOL     -0.436845
     45 C15        -3.1840   -0.5400   -0.2240 c3        1 MOL     -0.130331
     46 C16        -1.7590   -0.8230   -0.4890 c         1 MOL      0.873967
     47 O7         -0.8740   -0.9520    0.3620 o         1 MOL     -0.819725
     48 O8         -1.4700   -1.1870   -1.6290 o         1 MOL     -0.819725
     49 H21        -5.6800   -0.5960   -0.2600 hn        1 MOL      0.221605
     50 H22        -3.8830   -2.5800   -0.4830 h1        1 MOL      0.108864
     51 H23        -3.0890    0.3150    0.4430 hc        1 MOL      0.106609
     52 H24        -3.6100   -0.1770   -1.1580 hc        1 MOL      0.106609
     53 N5         -2.6320   -3.4000    1.5640 n         1 MOL     -0.129412
     54 C17        -2.2510   -4.1620    2.6750 c3        1 MOL     -0.373063
     55 C18        -1.2980   -3.4340    3.6610 c         1 MOL      0.613860
     56 O9         -1.4490   -3.7030    4.8530 o         1 MOL     -0.550094
     57 H25        -2.4830   -3.8630    0.6730 hn        1 MOL      0.234517
     58 H26        -1.9020   -5.1490    2.3780 h1        1 MOL      0.153053
     59 H27        -3.1670   -4.2260    3.2680 h1        1 MOL      0.153053
     60 N6         -0.5100   -2.4800    3.1430 n         1 MOL     -0.297961
     61 C19         0.3540   -1.6160    3.9140 c3        1 MOL     -0.021683
     62 C20         0.0730   -0.0660    3.7180 c         1 MOL      0.461129
     63 O10         0.8990    0.7740    3.9990 o         1 MOL     -0.549951
     64 C21         1.8040   -1.9800    3.6830 c3        1 MOL     -0.027202
     65 C22         2.3660   -1.9770    2.2220 c         1 MOL      0.458342
     66 N7          3.5150   -2.5860    2.0560 n         1 MOL     -0.697956
     67 O11         1.7340   -1.4750    1.3190 o         1 MOL     -0.439219
     68 H28        -0.6270   -2.2030    2.1800 hn        1 MOL      0.124836
     69 H29         0.0850   -1.8420    4.9420 h1        1 MOL      0.084887
     70 H30         2.1220   -2.8830    4.2090 hc        1 MOL      0.040548
     71 H31         2.3810   -1.2600    4.2610 hc        1 MOL      0.040548
     72 H32         4.0870   -2.8200    2.8580 hn        1 MOL      0.347131
     73 H33         3.7740   -2.7530    1.1010 hn        1 MOL      0.347131
     74 N8         -1.0990    0.2500    3.2350 n         1 MOL     -0.024576
     75 C23        -1.7280    1.5710    3.2670 c3        1 MOL     -0.440922
     76 C24        -1.2920    2.5480    2.1740 c         1 MOL      0.641916
     77 O12        -1.5300    3.7720    2.2550 o         1 MOL     -0.563455
     78 H34        -1.7400   -0.4670    2.9250 hn        1 MOL      0.088787
     79 H35        -1.4300    2.0280    4.2060 h1        1 MOL      0.177838
     80 H36        -2.8110    1.4050    3.2070 h1        1 MOL      0.177838
     81 N9         -0.5730    2.0530    1.2000 n         1 MOL     -0.392462
     82 C25        -0.0450    2.8760    0.0650 c3        1 MOL      0.050329
     83 C26         1.3210    2.2850   -0.2940 c         1 MOL      0.302640
     84 O13         1.5520    1.0870   -0.4750 o         1 MOL     -0.441321
     85 C27        -0.9730    2.7640   -1.1500 c3        1 MOL      0.101255
     86 C28        -2.1730    3.7310   -1.2530 ca        1 MOL      0.020424
     87 C29        -1.9790    4.9590   -1.9060 ca        1 MOL     -0.174771
     88 C30        -3.4110    3.3710   -0.7800 ca        1 MOL     -0.174771
     89 C31        -3.0600    5.8970   -2.0090 ca        1 MOL     -0.208843
     90 C32        -4.5140    4.2420   -0.9610 ca        1 MOL     -0.208843
     91 C33        -4.2760    5.5260   -1.4750 ca        1 MOL      0.342630
     92 O14        -5.2730    6.4620   -1.6490 oh        1 MOL     -0.558210
     93 H37        -0.4500    1.0540    1.1300 hn        1 MOL      0.241410
     94 H38         0.0820    3.9480    0.2200 h1        1 MOL      0.065677
     95 H39        -1.4260    1.7830   -1.2790 hc        1 MOL     -0.036132
     96 H40        -0.3510    2.9740   -2.0130 hc        1 MOL     -0.036132
     97 H41        -1.0350    5.2730   -2.3410 ha        1 MOL      0.112281
     98 H42        -3.5490    2.4370   -0.2710 ha        1 MOL      0.112281
     99 H43        -2.9580    6.8660   -2.4690 ha        1 MOL      0.141589
    100 H44        -5.4870    3.9310   -0.6070 ha        1 MOL      0.141589
    101 H45        -6.0000    6.3320   -1.0320 ho        1 MOL      0.412613
    102 N10         2.3260    3.1420   -0.5980 n         1 MOL     -0.233646
    103 C34         3.6920    2.6210   -0.8860 c3        1 MOL      0.003212
    104 C35         4.3440    2.2960    0.4120 c         1 MOL      0.183082
    105 O15         5.0790    1.2950    0.4620 o         1 MOL     -0.295666
    106 C36         4.4330    3.7280   -1.6880 c3        1 MOL      0.089664
    107 C37         3.6720    4.1330   -2.9620 c3        1 MOL      0.056302
    108 C38         5.9120    3.3940   -1.9190 c3        1 MOL     -0.251127
    109 C39         3.4410    2.9310   -3.9600 c3        1 MOL     -0.179703
    110 H46         2.2120    4.1170   -0.3690 hn        1 MOL      0.246364
    111 H47         3.6610    1.7720   -1.5600 h1        1 MOL      0.068132
    112 H48         4.4790    4.6370   -1.0930 hc        1 MOL     -0.027290
    113 H49         4.2280    4.8760   -3.5390 hc        1 MOL     -0.005334
    114 H50         2.7160    4.5390   -2.6370 hc        1 MOL     -0.005334
    115 H51         6.3760    4.2500   -2.4010 hc        1 MOL      0.078271
    116 H52         6.4750    3.1390   -1.0170 hc        1 MOL      0.078271
    117 H53         6.0110    2.5480   -2.6080 hc        1 MOL      0.078271
    118 H54         4.3100    2.2920   -4.1280 hc        1 MOL      0.058202
    119 H55         2.7040    2.2410   -3.5640 hc        1 MOL      0.058202
    120 H56         3.0260    3.3330   -4.8820 hc        1 MOL      0.058202
    121 N11         4.1020    3.0100    1.5250 n         1 MOL     -0.049412
    122 C40         4.6700    2.7510    2.8430 c3        1 MOL     -0.118998
    123 C41         6.2060    2.4880    2.7910 c         1 MOL      0.355729
    124 O16         6.7730    1.8150    3.6420 o         1 MOL     -0.474563
    125 C42         4.3440    3.8760    3.7690 c3        1 MOL      0.184726
    126 O17         3.0100    4.2570    3.5740 oh        1 MOL     -0.618514
    127 H57         3.4120    3.7340    1.6440 hn        1 MOL      0.203197
    128 H58         4.2610    1.8490    3.2920 h1        1 MOL      0.123977
    129 H59         4.9220    4.7700    3.5190 h1        1 MOL      0.052101
    130 H60         4.4000    3.6260    4.8260 h1        1 MOL      0.052101
    131 H61         2.4490    3.8950    4.2700 ho        1 MOL      0.438614
    132 N12         6.9080    3.0080    1.7820 n         1 MOL     -0.381880
    133 C43         8.2840    2.6720    1.3180 c3        1 MOL      0.434550
    134 C44         8.6340    1.2160    1.1560 c         1 MOL      0.426966
    135 O18         9.7870    0.8430    1.4280 o         1 MOL     -0.535007
    136 C45         9.3480    3.4670    2.1350 c3        1 MOL     -0.167083
    137 H62         6.3950    3.5860    1.1300 hn        1 MOL      0.189907
    138 H63         8.2790    3.0080    0.2830 h1        1 MOL     -0.031936
    139 H64         9.0310    4.5040    1.9840 hc        1 MOL      0.035096
    140 H65         9.2720    3.2420    3.1930 hc        1 MOL      0.035096
    141 H66        10.3460    3.4330    1.6980 hc        1 MOL      0.035096
    142 N13         7.6980    0.3920    0.5940 n         1 MOL     -0.379461
    143 C46         7.8770   -1.1010    0.4910 c3        1 MOL      0.371320
    144 C47         7.1550   -1.6690   -0.7790 c         1 MOL      0.229881
    145 O19         6.4640   -0.9750   -1.5260 o         1 MOL     -0.401541
    146 C48         7.3440   -1.7990    1.7490 c3        1 MOL     -0.461376
    147 H67         6.8000    0.7110    0.2720 hn        1 MOL      0.042824
    148 H68         8.9410   -1.2990    0.3560 h1        1 MOL      0.004445
    149 H69         7.6730   -2.8290    1.6510 hc        1 MOL      0.133322
    150 H70         7.8020   -1.3030    2.6060 hc        1 MOL      0.133322
    151 H71         6.2640   -1.6480    1.7570 hc        1 MOL      0.133322
    152 N14         7.3980   -2.9570   -0.9530 n         1 MOL     -0.320762
    153 C49         6.9740   -3.7680   -2.0900 c3        1 MOL     -0.177290
    154 C50         7.5820   -3.2440   -3.4070 c         1 MOL      0.406685
    155 O20         6.9980   -3.2680   -4.5030 o         1 MOL     -0.511663
    156 C51         5.4650   -3.9620   -2.1390 c3        1 MOL      0.150715
    157 C52         4.9360   -4.4210   -0.7870 c3        1 MOL      0.103150
    158 C53         3.4270   -4.7680   -0.9370 c         1 MOL      0.522438
    159 O21         3.1310   -5.9510   -0.8990 o         1 MOL     -0.627964
    160 O22         2.5000   -3.8580   -0.9520 o         1 MOL     -0.627964
    161 H72         8.1280   -3.3250   -0.3650 hn        1 MOL      0.284674
    162 H73         7.4280   -4.7410   -1.9320 h1        1 MOL      0.111983
    163 H74         5.2800   -4.7680   -2.8470 hc        1 MOL      0.023761
    164 H75         4.9430   -3.0840   -2.5150 hc        1 MOL      0.023761
    165 H76         5.1120   -3.6490   -0.0340 hc        1 MOL     -0.061286
    166 H77         5.4440   -5.3580   -0.5490 hc        1 MOL     -0.061286
    167 N15         8.7120   -2.5850   -3.3130 n         1 MOL     -0.232137
    168 C54         9.4210   -1.8790   -4.4480 c3        1 MOL     -0.062751
    169 H78         9.4300   -0.8060   -4.2590 h1        1 MOL      0.071265
    170 H79        10.4450   -2.2440   -4.5200 h1        1 MOL      0.071265
    171 H80         8.8980   -2.0780   -5.3830 h1        1 MOL      0.071265
    172 H81         9.1430   -2.5770   -2.4030 hn        1 MOL      0.201989
    173 Ca1         1.1210   -1.4990   -1.2840 Ca        1 MOL      1.724151
    174 O23         0.0780   -3.8020    0.1270 oh        1 MOL     -0.827901
    175 H82        -0.3650   -4.5380   -0.2860 ho        1 MOL      0.399601
    176 H83         1.0070   -3.9290   -0.0770 ho        1 MOL      0.399601
    177 O24         0.1830    0.1460   -3.1870 oh        1 MOL     -0.827901
    178 H84        -0.7270   -0.0630   -3.3740 ho        1 MOL      0.399601
    179 H85         0.3940    0.8560   -3.7870 ho        1 MOL      0.399601
    180 O25         3.8310   -0.8730   -0.7950 oh        1 MOL     -0.827901
    181 H86         4.5510   -0.9300   -1.4240 ho        1 MOL      0.399601
    182 H87         4.1450   -0.2730   -0.1230 ho        1 MOL      0.399601
    183 O26         2.7390   -1.9230   -3.6750 oh        1 MOL     -0.827901
    184 H88         2.6880   -1.2720   -4.3710 ho        1 MOL      0.399601
    185 H89         2.8450   -2.7620   -4.1260 ho        1 MOL      0.399601
    186 O27         0.1110   -3.3820   -3.1980 oh        1 MOL     -0.827901
    187 H90        -0.8480   -3.3000   -3.2300 ho        1 MOL      0.399601
    188 H91         0.3890   -3.2650   -4.1120 ho        1 MOL      0.399601
@<TRIPOS>BOND
     1    1    2 1   
     2    1    4 1   
     3    1    5 1   
     4    1    6 1   
     5    2    3 2   
     6    2    7 1   
     7    7    8 1   
     8    7   15 1   
     9    8    9 1   
    10    8   11 1   
    11    8   16 1   
    12    9   10 2   
    13    9   19 1   
    14   11   12 1   
    15   11   17 1   
    16   11   18 1   
    17   12   13 1   
    18   12   14 1   
    19   19   20 1   
    20   19   28 1   
    21   20   21 1   
    22   20   23 1   
    23   20   29 1   
    24   21   22 2   
    25   21   41 1   
    26   23   24 1   
    27   23   30 1   
    28   23   31 1   
    29   24   25 1   
    30   24   32 1   
    31   24   33 1   
    32   25   26 1   
    33   25   34 1   
    34   25   35 1   
    35   26   27 1   
    36   26   36 1   
    37   26   37 1   
    38   27   38 1   
    39   27   39 1   
    40   27   40 1   
    41   41   42 1   
    42   41   49 1   
    43   42   43 1   
    44   42   45 1   
    45   42   50 1   
    46   43   44 2   
    47   43   53 1   
    48   45   46 1   
    49   45   51 1   
    50   45   52 1   
    51   46   47 1   
    52   46   48 1   
    53   53   54 1   
    54   53   57 1   
    55   54   55 1   
    56   54   58 1   
    57   54   59 1   
    58   55   56 2   
    59   55   60 1   
    60   60   61 1   
    61   60   68 1   
    62   61   62 1   
    63   61   64 1   
    64   61   69 1   
    65   62   63 2   
    66   62   74 1   
    67   64   65 1   
    68   64   70 1   
    69   64   71 1   
    70   65   66 1   
    71   65   67 2   
    72   66   72 1   
    73   66   73 1   
    74   74   75 1   
    75   74   78 1   
    76   75   76 1   
    77   75   79 1   
    78   75   80 1   
    79   76   77 2   
    80   76   81 1   
    81   81   82 1   
    82   81   93 1   
    83   82   83 1   
    84   82   85 1   
    85   82   94 1   
    86   83   84 2   
    87   83  102 1   
    88   85   86 1   
    89   85   95 1   
    90   85   96 1   
    91   86   87 ar  
    92   86   88 ar  
    93   87   89 ar  
    94   87   97 1   
    95   88   90 ar  
    96   88   98 1   
    97   89   91 ar  
    98   89   99 1   
    99   90   91 ar  
   100   90  100 1   
   101   91   92 1   
   102   92  101 1   
   103  102  103 1   
   104  102  110 1   
   105  103  104 1   
   106  103  106 1   
   107  103  111 1   
   108  104  105 2   
   109  104  121 1   
   110  106  107 1   
   111  106  108 1   
   112  106  112 1   
   113  107  109 1   
   114  107  113 1   
   115  107  114 1   
   116  108  115 1   
   117  108  116 1   
   118  108  117 1   
   119  109  118 1   
   120  109  119 1   
   121  109  120 1   
   122  121  122 1   
   123  121  127 1   
   124  122  123 1   
   125  122  125 1   
   126  122  128 1   
   127  123  124 2   
   128  123  132 1   
   129  125  126 1   
   130  125  129 1   
   131  125  130 1   
   132  126  131 1   
   133  132  133 1   
   134  132  137 1   
   135  133  134 1   
   136  133  136 1   
   137  133  138 1   
   138  134  135 2   
   139  134  142 1   
   140  136  139 1   
   141  136  140 1   
   142  136  141 1   
   143  142  143 1   
   144  142  147 1   
   145  143  144 1   
   146  143  146 1   
   147  143  148 1   
   148  144  145 2   
   149  144  152 1   
   150  146  149 1   
   151  146  150 1   
   152  146  151 1   
   153  152  153 1   
   154  152  161 1   
   155  153  154 1   
   156  153  156 1   
   157  153  162 1   
   158  154  155 2   
   159  154  167 1   
   160  156  157 1   
   161  156  163 1   
   162  156  164 1   
   163  157  158 1   
   164  157  165 1   
   165  157  166 1   
   166  158  159 1   
   167  158  160 1   
   168  167  168 1   
   169  167  172 1   
   170  168  169 1   
   171  168  170 1   
   172  168  171 1   
   173  174  175 1   
   174  174  176 1   
   175  177  178 1   
   176  177  179 1   
   177  180  181 1   
   178  180  182 1   
   179  183  184 1   
   180  183  185 1   
   181  186  187 1   
   182  186  188 1   
@<TRIPOS>SUBSTRUCTURE
     1 MOL         1 TEMP              0 ****  ****    0 ROOT
