@<TRIPOS>MOLECULE
MOL
  178   175     1     0     0
SMALL
resp


@<TRIPOS>ATOM
      1 C1          1.3210    5.6210   -2.4490 c3        1 MOL     -0.379624
      2 C2          2.7430    5.9000   -2.0200 c         1 MOL      0.689192
      3 O1          2.8450    6.6070   -0.9680 o         1 MOL     -0.595530
      4 H1          0.7000    6.4900   -2.2310 hc        1 MOL      0.095228
      5 H2          1.2970    5.4170   -3.5190 hc        1 MOL      0.095228
      6 H3          0.9390    4.7570   -1.9050 hc        1 MOL      0.095228
      7 N1          3.8510    5.4730   -2.6500 n         1 MOL     -0.646167
      8 C3          5.1790    5.6350   -2.0270 c3        1 MOL      0.393814
      9 C4          5.3800    4.8060   -0.7920 c         1 MOL      0.504929
     10 O2          6.1620    3.8660   -0.8490 o         1 MOL     -0.482911
     11 C5          6.2260    5.2260   -3.1040 c3        1 MOL     -0.417722
     12 C6          7.6910    5.4800   -2.6850 c         1 MOL      0.818661
     13 O3          8.6000    4.6340   -2.9210 o         1 MOL     -0.757961
     14 O4          8.0010    6.5930   -2.2620 o         1 MOL     -0.757961
     15 H4          3.7330    4.9700   -3.5200 hn        1 MOL      0.327310
     16 H5          5.3780    6.6610   -1.7450 h1        1 MOL     -0.010285
     17 H6          6.0350    5.8330   -3.9810 hc        1 MOL      0.055722
     18 H7          6.0390    4.1790   -3.3090 hc        1 MOL      0.055722
     19 N2          4.7610    5.1710    0.3360 n         1 MOL     -0.697480
     20 C7          4.8470    4.4760    1.6160 c3        1 MOL      0.770231
     21 C8          3.4390    4.0420    1.9830 c         1 MOL      0.379682
     22 O5          2.4860    4.8290    1.8180 o         1 MOL     -0.559492
     23 C9          5.4900    5.4220    2.6640 c3        1 MOL     -0.382149
     24 H8          3.9220    5.7260    0.2890 hn        1 MOL      0.299723
     25 H9          5.3680    3.5310    1.4770 h1        1 MOL     -0.156945
     26 H10         5.7820    4.9230    3.5820 hc        1 MOL      0.075981
     27 H11         6.4690    5.6630    2.2540 hc        1 MOL      0.075981
     28 H12         4.7870    6.2060    2.9410 hc        1 MOL      0.075981
     29 N3          3.1920    2.8920    2.5360 n         1 MOL     -0.358389
     30 C10         4.1010    1.8320    3.0790 c3        1 MOL     -0.111751
     31 C11         4.3210    0.6990    2.1300 c         1 MOL      0.720707
     32 O6          3.3620    0.2200    1.5580 o         1 MOL     -0.635927
     33 C12         3.6920    1.4090    4.5360 c3        1 MOL     -0.019497
     34 C13         2.2310    0.9620    4.7490 c         1 MOL      0.703830
     35 O7          1.4130    1.0640    3.8110 o         1 MOL     -0.691639
     36 O8          1.9010    0.6010    5.9100 o         1 MOL     -0.691639
     37 H13         2.2380    2.5860    2.6770 hn        1 MOL      0.279604
     38 H14         5.0670    2.3170    3.2360 h1        1 MOL      0.027884
     39 H15         3.9410    2.2460    5.1990 hc        1 MOL     -0.010579
     40 H16         4.2870    0.5640    4.8690 hc        1 MOL     -0.010579
     41 N4          5.4530    0.0220    2.1840 n         1 MOL     -0.472603
     42 C14         5.7570   -1.2150    1.4060 c3        1 MOL     -0.011858
     43 C15         6.5460   -0.9330    0.1120 c         1 MOL      0.583331
     44 O9          6.8860    0.1830   -0.2270 o         1 MOL     -0.494417
     45 H17         6.2010    0.2500    2.8280 hn        1 MOL      0.297355
     46 H18         4.8340   -1.7160    1.1220 h1        1 MOL      0.088659
     47 H19         6.2050   -1.9360    2.0950 h1        1 MOL      0.088659
     48 N5          6.9890   -1.9220   -0.6760 n         1 MOL     -0.546816
     49 C16         6.6610   -3.3490   -0.6430 c3        1 MOL     -0.009716
     50 C17         5.7150   -3.6470   -1.7690 c         1 MOL      0.674403
     51 O10         5.8510   -3.0820   -2.8710 o         1 MOL     -0.550177
     52 C18         7.9690   -4.2140   -0.7350 c3        1 MOL     -0.221170
     53 C19         8.9240   -4.0130    0.4430 c         1 MOL      0.667546
     54 N6         10.1590   -4.4530    0.3410 n         1 MOL     -0.791812
     55 O11         8.5340   -3.5910    1.5250 o         1 MOL     -0.520052
     56 H20         7.6240   -1.6850   -1.4290 hn        1 MOL      0.341870
     57 H21         6.2010   -3.5980    0.3190 h1        1 MOL      0.034190
     58 H22         8.3950   -3.8990   -1.6870 hc        1 MOL      0.070481
     59 H23         7.7490   -5.2350   -1.0420 hc        1 MOL      0.070481
     60 H24        10.5010   -4.8600   -0.5160 hn        1 MOL      0.365351
     61 H25        10.8070   -4.1150    1.0390 hn        1 MOL      0.365351
     62 N7          4.8100   -4.5610   -1.5640 n         1 MOL     -0.500740
     63 C20         4.1500   -5.3260   -2.6440 c3        1 MOL      0.078313
     64 C21         2.7480   -5.7920   -2.3880 c         1 MOL      0.400532
     65 O12         2.2220   -6.7130   -3.0230 o         1 MOL     -0.557749
     66 H26         4.7430   -4.9380   -0.6350 hn        1 MOL      0.290458
     67 H27         4.6880   -6.1780   -3.0400 h1        1 MOL      0.063729
     68 H28         4.0750   -4.7140   -3.5400 h1        1 MOL      0.063729
     69 N8          2.0340   -5.0700   -1.5600 n         1 MOL     -0.142722
     70 C22         0.6030   -5.3220   -1.1360 c3        1 MOL      0.019855
     71 C23        -0.3490   -4.2150   -1.4550 c         1 MOL      0.397816
     72 O13         0.0480   -3.0350   -1.7450 o         1 MOL     -0.547670
     73 C24         0.5610   -5.6130    0.3830 c3        1 MOL      0.341610
     74 C25         1.3040   -6.8870    0.7580 c3        1 MOL     -0.314729
     75 O14         1.1640   -4.5750    1.1020 oh        1 MOL     -0.570536
     76 H29         2.4330   -4.2130   -1.2060 hn        1 MOL      0.146247
     77 H30         0.2510   -6.1690   -1.7190 h1        1 MOL      0.070178
     78 H31        -0.4770   -5.5900    0.7030 h1        1 MOL      0.016611
     79 H32         0.4490   -4.0310    1.4430 ho        1 MOL      0.351877
     80 H33         1.6310   -6.8470    1.7950 hc        1 MOL      0.066607
     81 H34         0.5740   -7.6750    0.5630 hc        1 MOL      0.066607
     82 H35         2.1630   -6.9900    0.0890 hc        1 MOL      0.066607
     83 N9         -1.6670   -4.4720   -1.3380 n         1 MOL     -0.243808
     84 C26        -2.8750   -3.6250   -1.3560 c3        1 MOL     -0.045038
     85 C27        -3.5780   -3.7440   -0.0090 c         1 MOL      0.280528
     86 O15        -4.0100   -4.8490    0.3810 o         1 MOL     -0.525868
     87 C28        -3.8030   -4.0250   -2.5110 c3        1 MOL      0.108760
     88 C29        -5.2700   -3.5500   -2.4740 c3        1 MOL     -0.082973
     89 C30        -3.1810   -3.7380   -3.8550 c3        1 MOL     -0.321101
     90 C31        -5.5190   -2.0800   -2.4290 c3        1 MOL     -0.134926
     91 H36        -1.8320   -5.4630   -1.3220 hn        1 MOL      0.203583
     92 H37        -2.5500   -2.5860   -1.4000 h1        1 MOL      0.240887
     93 H38        -3.8810   -5.1190   -2.4780 hc        1 MOL      0.005696
     94 H39        -5.7820   -4.1770   -1.7460 hc        1 MOL      0.043270
     95 H40        -5.6910   -3.9530   -3.4000 hc        1 MOL      0.043270
     96 H41        -3.8240   -3.9850   -4.6980 hc        1 MOL      0.084261
     97 H42        -3.0010   -2.6670   -3.7710 hc        1 MOL      0.084261
     98 H43        -2.2290   -4.2390   -4.0510 hc        1 MOL      0.084261
     99 H44        -6.5550   -1.8440   -2.1900 hc        1 MOL      0.021834
    100 H45        -4.9040   -1.5620   -1.6930 hc        1 MOL      0.021834
    101 H46        -5.3690   -1.7710   -3.4700 hc        1 MOL      0.021834
    102 N10        -3.5700   -2.6570    0.7410 n         1 MOL     -0.251803
    103 C32        -4.1020   -2.6250    2.1240 c3        1 MOL      0.174184
    104 C33        -4.9590   -1.3680    2.3970 c         1 MOL      0.390269
    105 O16        -5.3150   -1.0760    3.5690 o         1 MOL     -0.518657
    106 C34        -2.9340   -2.7400    3.0690 c3        1 MOL     -0.068725
    107 C35        -1.6440   -2.0210    2.7010 c         1 MOL      0.780979
    108 O17        -1.2920   -0.9280    3.1590 o         1 MOL     -0.788161
    109 O18        -0.8450   -2.5420    1.8520 o         1 MOL     -0.788161
    110 H47        -3.1880   -1.7880    0.3820 hn        1 MOL      0.358102
    111 H48        -4.7580   -3.4680    2.3380 h1        1 MOL      0.060741
    112 H49        -2.7390   -3.8120    3.1090 hc        1 MOL      0.007095
    113 H50        -3.3210   -2.4560    4.0500 hc        1 MOL      0.007095
    114 N11        -5.3350   -0.6420    1.3510 n         1 MOL     -0.610109
    115 C36        -6.4410    0.2910    1.4310 c3        1 MOL      0.531636
    116 C37        -6.2050    1.6030    0.5870 c         1 MOL      0.137684
    117 O19        -6.8400    1.7390   -0.4450 o         1 MOL     -0.387955
    118 C38        -7.7470   -0.4950    1.2020 c3        1 MOL     -0.377250
    119 C39        -9.0040    0.3050    1.2140 ca        1 MOL      0.063487
    120 C40        -9.2550    1.2880    2.1860 ca        1 MOL     -0.107521
    121 C41        -9.9820    0.0750    0.1530 ca        1 MOL     -0.107521
    122 C42       -10.4160    1.9850    2.1800 ca        1 MOL     -0.162651
    123 C43       -11.1270    0.8070    0.1650 ca        1 MOL     -0.162651
    124 C44       -11.3080    1.8430    1.1250 ca        1 MOL     -0.077192
    125 H51        -4.8480   -0.8170    0.4890 hn        1 MOL      0.308761
    126 H52        -6.4380    0.6480    2.4590 h1        1 MOL     -0.016166
    127 H53        -7.8710   -1.2180    2.0070 hc        1 MOL      0.126730
    128 H54        -7.7210   -1.0240    0.2500 hc        1 MOL      0.126730
    129 H55        -8.5970    1.2500    3.0490 ha        1 MOL      0.111860
    130 H56        -9.9280   -0.6660   -0.6270 ha        1 MOL      0.111860
    131 H57       -10.6690    2.6400    2.9980 ha        1 MOL      0.110100
    132 H58       -11.9220    0.5570   -0.5280 ha        1 MOL      0.110100
    133 H59       -12.2000    2.4500    1.0340 ha        1 MOL      0.083522
    134 N12        -5.1470    2.3990    0.9550 n         1 MOL     -0.003659
    135 C45        -4.7850    3.6100    0.1830 c3        1 MOL     -0.107860
    136 C46        -4.4630    3.4600   -1.2800 c         1 MOL      0.306768
    137 O20        -4.6990    4.4190   -1.9700 o         1 MOL     -0.453039
    138 C47        -3.5210    4.1150    0.8310 c3        1 MOL      0.075100
    139 C48        -3.5820    3.5580    2.2440 c3        1 MOL     -0.037146
    140 C49        -4.3640    2.2670    2.1980 c3        1 MOL     -0.093182
    141 H60        -5.5640    4.3660    0.2750 h1        1 MOL      0.089406
    142 H61        -2.5710    3.7990    0.3920 hc        1 MOL      0.026641
    143 H62        -3.5090    5.2000    0.8790 hc        1 MOL      0.026641
    144 H63        -2.5800    3.4340    2.6530 hc        1 MOL      0.019925
    145 H64        -4.1300    4.2590    2.8750 hc        1 MOL      0.019925
    146 H65        -3.7080    1.3990    2.1020 h1        1 MOL      0.096997
    147 H66        -5.1240    2.1380    2.9790 h1        1 MOL      0.096997
    148 N13        -3.8890    2.2960   -1.7160 n         1 MOL     -0.173689
    149 C50        -3.6250    1.8800   -3.0780 c3        1 MOL     -0.101150
    150 C51        -4.8210    1.9820   -3.9870 c         1 MOL      0.453084
    151 O21        -4.7150    2.6270   -5.0320 o         1 MOL     -0.528691
    152 C52        -2.9430    0.4920   -3.2060 c3        1 MOL     -0.066822
    153 C53        -1.7080    0.1340   -2.3940 c3        1 MOL     -0.045629
    154 C54        -1.9470    0.0940   -0.8770 c         1 MOL      0.481523
    155 O22        -1.0530    0.3290   -0.0310 o         1 MOL     -0.698049
    156 O23        -3.0840   -0.2010   -0.5610 o         1 MOL     -0.698049
    157 H67        -3.8390    1.5470   -1.0340 hn        1 MOL      0.343339
    158 H68        -2.8770    2.5670   -3.4690 h1        1 MOL      0.097386
    159 H69        -2.7090    0.3250   -4.2560 hc        1 MOL      0.029746
    160 H70        -3.6220   -0.3220   -2.9420 hc        1 MOL      0.029746
    161 H71        -0.9240    0.8520   -2.6100 hc        1 MOL      0.029689
    162 H72        -1.2910   -0.8340   -2.6540 hc        1 MOL      0.029689
    163 N14        -6.0550    1.7060   -3.5060 n         1 MOL     -0.235098
    164 C55        -7.2550    2.2120   -4.2000 c3        1 MOL     -0.077573
    165 H73        -7.6880    3.0310   -3.6260 h1        1 MOL      0.059826
    166 H74        -6.9770    2.5720   -5.1920 h1        1 MOL      0.059826
    167 H75        -7.9850    1.4090   -4.2960 h1        1 MOL      0.059826
    168 H76        -6.1600    1.3970   -2.5550 hn        1 MOL      0.179772
    169 Ca1         0.7960   -0.4320    1.8370 Ca        1 MOL      1.777583
    170 O24         1.9220   -2.3830    3.2950 oh        1 MOL     -0.921230
    171 H77         1.3970   -3.1770    3.4450 ho        1 MOL      0.437469
    172 H78         2.5850   -2.3950    3.9800 ho        1 MOL      0.437469
    173 O25         1.7590   -1.6930   -0.2710 oh        1 MOL     -0.921230
    174 H79         2.4560   -1.3930   -0.8560 ho        1 MOL      0.437469
    175 H80         1.0360   -1.9230   -0.8570 ho        1 MOL      0.437469
    176 O26         0.4820    2.1470    1.1510 oh        1 MOL     -0.921230
    177 H81        -0.2610    1.8340    0.6410 ho        1 MOL      0.437469
    178 H82         0.2650    3.0480    1.3650 ho        1 MOL      0.437469
@<TRIPOS>BOND
     1    1    2 1   
     2    1    4 1   
     3    1    5 1   
     4    1    6 1   
     5    2    3 2   
     6    2    7 1   
     7    7    8 1   
     8    7   15 1   
     9    8    9 1   
    10    8   11 1   
    11    8   16 1   
    12    9   10 2   
    13    9   19 1   
    14   11   12 1   
    15   11   17 1   
    16   11   18 1   
    17   12   13 1   
    18   12   14 1   
    19   19   20 1   
    20   19   24 1   
    21   20   21 1   
    22   20   23 1   
    23   20   25 1   
    24   21   22 2   
    25   21   29 1   
    26   23   26 1   
    27   23   27 1   
    28   23   28 1   
    29   29   30 1   
    30   29   37 1   
    31   30   31 1   
    32   30   33 1   
    33   30   38 1   
    34   31   32 2   
    35   31   41 1   
    36   33   34 1   
    37   33   39 1   
    38   33   40 1   
    39   34   35 1   
    40   34   36 1   
    41   41   42 1   
    42   41   45 1   
    43   42   43 1   
    44   42   46 1   
    45   42   47 1   
    46   43   44 2   
    47   43   48 1   
    48   48   49 1   
    49   48   56 1   
    50   49   50 1   
    51   49   52 1   
    52   49   57 1   
    53   50   51 2   
    54   50   62 1   
    55   52   53 1   
    56   52   58 1   
    57   52   59 1   
    58   53   54 1   
    59   53   55 2   
    60   54   60 1   
    61   54   61 1   
    62   62   63 1   
    63   62   66 1   
    64   63   64 1   
    65   63   67 1   
    66   63   68 1   
    67   64   65 2   
    68   64   69 1   
    69   69   70 1   
    70   69   76 1   
    71   70   71 1   
    72   70   73 1   
    73   70   77 1   
    74   71   72 2   
    75   71   83 1   
    76   73   74 1   
    77   73   75 1   
    78   73   78 1   
    79   74   80 1   
    80   74   81 1   
    81   74   82 1   
    82   75   79 1   
    83   83   84 1   
    84   83   91 1   
    85   84   85 1   
    86   84   87 1   
    87   84   92 1   
    88   85   86 2   
    89   85  102 1   
    90   87   88 1   
    91   87   89 1   
    92   87   93 1   
    93   88   90 1   
    94   88   94 1   
    95   88   95 1   
    96   89   96 1   
    97   89   97 1   
    98   89   98 1   
    99   90   99 1   
   100   90  100 1   
   101   90  101 1   
   102  102  103 1   
   103  102  110 1   
   104  103  104 1   
   105  103  106 1   
   106  103  111 1   
   107  104  105 2   
   108  104  114 1   
   109  106  107 1   
   110  106  112 1   
   111  106  113 1   
   112  107  108 1   
   113  107  109 1   
   114  114  115 1   
   115  114  125 1   
   116  115  116 1   
   117  115  118 1   
   118  115  126 1   
   119  116  117 2   
   120  116  134 1   
   121  118  119 1   
   122  118  127 1   
   123  118  128 1   
   124  119  120 ar  
   125  119  121 ar  
   126  120  122 ar  
   127  120  129 1   
   128  121  123 ar  
   129  121  130 1   
   130  122  124 ar  
   131  122  131 1   
   132  123  124 ar  
   133  123  132 1   
   134  124  133 1   
   135  134  135 1   
   136  134  140 1   
   137  135  136 1   
   138  135  138 1   
   139  135  141 1   
   140  136  137 2   
   141  136  148 1   
   142  138  139 1   
   143  138  142 1   
   144  138  143 1   
   145  139  140 1   
   146  139  144 1   
   147  139  145 1   
   148  140  146 1   
   149  140  147 1   
   150  148  149 1   
   151  148  157 1   
   152  149  150 1   
   153  149  152 1   
   154  149  158 1   
   155  150  151 2   
   156  150  163 1   
   157  152  153 1   
   158  152  159 1   
   159  152  160 1   
   160  153  154 1   
   161  153  161 1   
   162  153  162 1   
   163  154  155 1   
   164  154  156 1   
   165  163  164 1   
   166  163  168 1   
   167  164  165 1   
   168  164  166 1   
   169  164  167 1   
   170  170  171 1   
   171  170  172 1   
   172  173  174 1   
   173  173  175 1   
   174  176  177 1   
   175  176  178 1   
@<TRIPOS>SUBSTRUCTURE
     1 MOL         1 TEMP              0 ****  ****    0 ROOT
