@<TRIPOS>MOLECULE
MOL
  178   175     1     0     0
SMALL
resp


@<TRIPOS>ATOM
      1 C1          4.7440   -1.1210    3.0830 c3        1 MOL     -0.421379
      2 C2          5.9300   -0.2920    2.7030 c         1 MOL      0.689929
      3 O1          5.8460    0.5930    1.7990 o         1 MOL     -0.643313
      4 H1          4.9000   -2.1490    2.7540 hc        1 MOL      0.118391
      5 H2          4.6190   -1.1020    4.1660 hc        1 MOL      0.118391
      6 H3          3.8510   -0.7190    2.6070 hc        1 MOL      0.118391
      7 N1          7.1290   -0.5550    3.1720 n         1 MOL     -0.532424
      8 C3          8.4050   -0.0930    2.7140 c3        1 MOL      0.298911
      9 C4          8.8240   -0.5710    1.3130 c         1 MOL      0.564549
     10 O2          8.9930   -1.7810    1.1050 o         1 MOL     -0.507432
     11 C5          9.4880   -0.3870    3.7660 c3        1 MOL     -0.436467
     12 C6          9.6520   -1.8760    4.1200 c         1 MOL      0.834135
     13 O3         10.7700   -2.2230    4.5020 o         1 MOL     -0.737000
     14 O4          8.7150   -2.6740    4.0520 o         1 MOL     -0.737000
     15 H4          7.1740   -1.4180    3.7020 hn        1 MOL      0.273466
     16 H5          8.3220    0.9970    2.6970 h1        1 MOL     -0.022860
     17 H6          9.0860    0.0430    4.6780 hc        1 MOL      0.069433
     18 H7         10.4590   -0.0280    3.4280 hc        1 MOL      0.069433
     19 N2          9.0180    0.3030    0.3310 n         1 MOL     -0.530287
     20 C7          9.1310   -0.0520   -1.0730 c3        1 MOL      0.212484
     21 C8          7.8600   -0.6760   -1.7170 c         1 MOL      0.228387
     22 O5          7.9110   -1.1830   -2.7970 o         1 MOL     -0.470038
     23 C9          9.3770    1.2100   -1.8410 c3        1 MOL     -0.260922
     24 H8          9.0690    1.2640    0.6320 hn        1 MOL      0.265948
     25 H9         10.0370   -0.6490   -1.2010 h1        1 MOL      0.074752
     26 H10         9.2460    1.0120   -2.9050 hc        1 MOL      0.065265
     27 H11         8.6930    1.9590   -1.4460 hc        1 MOL      0.065265
     28 H12        10.3690    1.6590   -1.8360 hc        1 MOL      0.065265
     29 N3          6.7520   -0.7610   -0.9600 n         1 MOL     -0.096079
     30 C10         5.3730   -1.1640   -1.3070 c3        1 MOL      0.129885
     31 C11         4.8960   -0.5460   -2.6470 c         1 MOL      0.404813
     32 O6          4.5120   -1.2020   -3.6090 o         1 MOL     -0.485021
     33 C12         5.1880   -2.6720   -1.1440 c3        1 MOL     -0.157128
     34 C13         3.8240   -3.2420   -1.4730 c         1 MOL      0.585049
     35 O7          3.7990   -4.3630   -2.0170 o         1 MOL     -0.659416
     36 O8          2.8090   -2.5720   -1.2540 o         1 MOL     -0.659416
     37 H13         6.8930   -0.4130   -0.0280 hn        1 MOL      0.114851
     38 H14         4.7140   -0.7180   -0.5640 h1        1 MOL      0.003896
     39 H15         5.4920   -3.0520   -0.1740 hc        1 MOL      0.053938
     40 H16         5.8630   -3.1840   -1.8280 hc        1 MOL      0.053938
     41 N4          5.0290    0.7430   -2.8070 n         1 MOL     -0.175144
     42 C14         4.8390    1.4660   -4.0500 c3        1 MOL     -0.072507
     43 C15         3.5110    2.3510   -4.1050 c         1 MOL      0.629935
     44 O9          3.5200    3.3670   -4.8150 o         1 MOL     -0.602561
     45 H17         5.2890    1.2680   -1.9850 hn        1 MOL      0.187433
     46 H18         4.7880    0.7960   -4.9080 h1        1 MOL      0.058281
     47 H19         5.6870    2.1400   -4.1330 h1        1 MOL      0.058281
     48 N5          2.4290    1.9760   -3.4540 n         1 MOL     -0.366898
     49 C16         1.2410    2.7820   -3.5230 c3        1 MOL     -0.086569
     50 C17         1.5240    4.0630   -2.7090 c         1 MOL      0.386461
     51 O10         2.2930    4.1530   -1.7880 o         1 MOL     -0.471453
     52 C18        -0.0170    2.0320   -2.9770 c3        1 MOL     -0.033409
     53 C19        -0.4280    0.8340   -3.8070 c         1 MOL      0.579024
     54 N6         -0.5290   -0.3420   -3.2010 n         1 MOL     -0.765084
     55 O11        -0.5620    1.0100   -5.0460 o         1 MOL     -0.605090
     56 H20         2.4330    1.1920   -2.8110 hn        1 MOL      0.227476
     57 H21         1.0910    2.9670   -4.5890 h1        1 MOL      0.098546
     58 H22        -0.8630    2.7210   -3.0040 hc        1 MOL      0.063624
     59 H23         0.2310    1.6990   -1.9670 hc        1 MOL      0.063624
     60 H24        -0.3500   -0.4840   -2.2090 hn        1 MOL      0.368190
     61 H25        -0.7140   -1.1790   -3.7270 hn        1 MOL      0.368190
     62 N7          0.7400    5.0770   -3.0240 n         1 MOL     -0.151808
     63 C20         0.5020    6.3170   -2.2910 c3        1 MOL     -0.422010
     64 C21        -0.6720    6.2230   -1.2900 c         1 MOL      0.763917
     65 O12        -1.6190    5.4800   -1.4600 o         1 MOL     -0.531676
     66 H26         0.1780    4.9610   -3.8580 hn        1 MOL      0.216080
     67 H27         0.2870    7.0950   -3.0310 h1        1 MOL      0.150136
     68 H28         1.4320    6.4600   -1.7430 h1        1 MOL      0.150136
     69 N8         -0.6400    6.9960   -0.1880 n         1 MOL     -0.501497
     70 C22        -1.8440    7.2900    0.6530 c3        1 MOL     -0.449440
     71 C23        -2.4980    6.0920    1.3660 c         1 MOL      0.587671
     72 O13        -3.6330    6.1790    1.8250 o         1 MOL     -0.572859
     73 C24        -1.5880    8.4030    1.6680 c3        1 MOL      0.516943
     74 C25        -0.6670    8.0310    2.8460 c3        1 MOL     -0.160485
     75 O14        -1.0880    9.6170    1.0950 oh        1 MOL     -0.663504
     76 H29         0.2340    7.4950   -0.0230 hn        1 MOL      0.278836
     77 H30        -2.5540    7.6570   -0.0810 h1        1 MOL      0.198183
     78 H31        -2.5220    8.5980    2.2010 h1        1 MOL      0.026776
     79 H32        -0.2850    9.4710    0.6080 ho        1 MOL      0.403060
     80 H33        -0.3790    8.9290    3.3900 hc        1 MOL      0.031948
     81 H34        -1.1500    7.4020    3.6040 hc        1 MOL      0.031948
     82 H35         0.2530    7.6250    2.4050 hc        1 MOL      0.031948
     83 N9         -1.7530    4.9940    1.4810 n         1 MOL     -0.190776
     84 C26        -2.0740    3.6660    2.0290 c3        1 MOL     -0.066661
     85 C27        -1.4730    2.6370    1.1400 c         1 MOL      0.454931
     86 O15        -0.4320    2.7420    0.5350 o         1 MOL     -0.464327
     87 C28        -1.5490    3.5300    3.4960 c3        1 MOL      0.177776
     88 C29        -0.1950    4.1780    3.7630 c3        1 MOL      0.186880
     89 C30        -2.6240    4.0690    4.3940 c3        1 MOL     -0.399721
     90 C31         0.4480    3.6680    5.0570 c3        1 MOL     -0.223774
     91 H36        -0.8990    4.9420    0.9460 hn        1 MOL      0.176588
     92 H37        -3.1550    3.5630    1.9540 h1        1 MOL      0.085360
     93 H38        -1.5840    2.4660    3.7410 hc        1 MOL     -0.015640
     94 H39        -0.2560    5.2680    3.7150 hc        1 MOL     -0.020683
     95 H40         0.4960    3.8820    2.9780 hc        1 MOL     -0.020683
     96 H41        -3.4600    3.3770    4.2860 hc        1 MOL      0.088373
     97 H42        -2.2520    4.1940    5.4150 hc        1 MOL      0.088373
     98 H43        -3.0540    5.0420    4.1370 hc        1 MOL      0.088373
     99 H44        -0.0200    4.1980    5.8940 hc        1 MOL      0.047128
    100 H45         0.3000    2.5950    5.1690 hc        1 MOL      0.047128
    101 H46         1.5190    3.8440    5.1640 hc        1 MOL      0.047128
    102 N10        -2.2090    1.5260    1.0330 n         1 MOL     -0.453630
    103 C32        -1.8640    0.3580    0.2650 c3        1 MOL      0.035494
    104 C33        -3.2370   -0.2530   -0.2510 c         1 MOL      0.495131
    105 O16        -3.2780   -1.4410   -0.6100 o         1 MOL     -0.445896
    106 C34        -1.0270   -0.6700    0.9870 c3        1 MOL      0.117367
    107 C35        -0.4260   -1.8240    0.1750 c         1 MOL      0.497692
    108 O17        -0.1210   -1.7160   -1.0380 o         1 MOL     -0.670934
    109 O18        -0.2190   -2.9200    0.7940 o         1 MOL     -0.670934
    110 H47        -2.9750    1.4520    1.6820 hn        1 MOL      0.292318
    111 H48        -1.2790    0.7230   -0.5740 h1        1 MOL      0.052069
    112 H49        -1.5860   -1.0500    1.8480 hc        1 MOL      0.008149
    113 H50        -0.2630   -0.1310    1.5500 hc        1 MOL      0.008149
    114 N11        -4.3660    0.4840   -0.1410 n         1 MOL     -0.617650
    115 C36        -5.6990    0.0150   -0.6040 c3        1 MOL      0.552066
    116 C37        -6.2590   -1.0010    0.4450 c         1 MOL      0.131089
    117 O19        -6.1660   -0.7690    1.6790 o         1 MOL     -0.483286
    118 C38        -6.5590    1.2020   -0.8030 c3        1 MOL     -0.353090
    119 C39        -7.9220    0.7150   -1.3470 ca        1 MOL      0.133914
    120 C40        -8.2290    0.7480   -2.7360 ca        1 MOL     -0.147845
    121 C41        -8.9630    0.3290   -0.4610 ca        1 MOL     -0.147845
    122 C42        -9.5100    0.4450   -3.1150 ca        1 MOL     -0.137140
    123 C43       -10.2500   -0.0360   -0.9300 ca        1 MOL     -0.137140
    124 C44       -10.5340    0.0740   -2.2750 ca        1 MOL     -0.102881
    125 H51        -4.3570    1.3430    0.3890 hn        1 MOL      0.275605
    126 H52        -5.5450   -0.5090   -1.5450 h1        1 MOL     -0.026082
    127 H53        -6.1800    1.8440   -1.6050 hc        1 MOL      0.114693
    128 H54        -6.6210    1.7620    0.1250 hc        1 MOL      0.114693
    129 H55        -7.4720    1.0780   -3.4180 ha        1 MOL      0.124171
    130 H56        -8.8520    0.4050    0.6170 ha        1 MOL      0.124171
    131 H57        -9.7750    0.6400   -4.1450 ha        1 MOL      0.107875
    132 H58       -10.9860   -0.6370   -0.4290 ha        1 MOL      0.107875
    133 H59       -11.4620   -0.3180   -2.6540 ha        1 MOL      0.108698
    134 N12        -6.8920   -2.1170    0.0220 n         1 MOL      0.002139
    135 C45        -7.5510   -3.0800    0.8840 c3        1 MOL      0.099176
    136 C46        -6.5970   -3.7200    1.8860 c         1 MOL      0.304987
    137 O20        -7.0590   -4.1590    2.9420 o         1 MOL     -0.527344
    138 C47        -8.2430   -4.0440   -0.0550 c3        1 MOL     -0.074388
    139 C48        -8.2810   -3.4180   -1.4170 c3        1 MOL      0.008648
    140 C49        -7.0410   -2.6010   -1.3400 c3        1 MOL     -0.048496
    141 H60        -8.3430   -2.6090    1.4620 h1        1 MOL      0.049350
    142 H61        -7.6610   -4.9640   -0.0270 hc        1 MOL      0.031951
    143 H62        -9.2250   -4.2560    0.3750 hc        1 MOL      0.031951
    144 H63        -8.4130   -4.2030   -2.1640 hc        1 MOL      0.028514
    145 H64        -9.1020   -2.7180   -1.5770 hc        1 MOL      0.028514
    146 H65        -6.1260   -3.1480   -1.5920 h1        1 MOL      0.023957
    147 H66        -7.1940   -1.7570   -2.0090 h1        1 MOL      0.023957
    148 N13        -5.2910   -3.6960    1.6540 n         1 MOL     -0.059668
    149 C50        -4.1680   -4.2680    2.4160 c3        1 MOL     -0.404440
    150 C51        -3.7270   -3.4120    3.6440 c         1 MOL      0.470754
    151 O21        -2.9890   -3.9700    4.5070 o         1 MOL     -0.536187
    152 C52        -2.9000   -4.5130    1.5260 c3        1 MOL     -0.076907
    153 C53        -3.0680   -5.2410    0.1980 c3        1 MOL      0.215827
    154 C54        -1.8090   -5.2830   -0.6380 c         1 MOL      0.563492
    155 O22        -1.6960   -4.6670   -1.7590 o         1 MOL     -0.746272
    156 O23        -0.8530   -5.9060   -0.1490 o         1 MOL     -0.746272
    157 H67        -5.0270   -3.2420    0.7980 hn        1 MOL      0.216740
    158 H68        -4.4940   -5.2040    2.8730 h1        1 MOL      0.193575
    159 H69        -2.0200   -4.9610    1.9860 hc        1 MOL      0.099755
    160 H70        -2.6660   -3.4700    1.3320 hc        1 MOL      0.099755
    161 H71        -3.8920   -4.7880   -0.3540 hc        1 MOL     -0.065442
    162 H72        -3.3380   -6.2900    0.3160 hc        1 MOL     -0.065442
    163 N14        -4.0830   -2.1010    3.7210 n         1 MOL     -0.076753
    164 C55        -3.8110   -1.2580    4.9070 c3        1 MOL     -0.362871
    165 H73        -3.5900   -0.2400    4.5860 h1        1 MOL      0.127559
    166 H74        -4.6880   -1.2510    5.5560 h1        1 MOL      0.127559
    167 H75        -2.9580   -1.6610    5.4520 h1        1 MOL      0.127559
    168 H76        -4.6780   -1.7710    2.9690 hn        1 MOL      0.162727
    169 Ca1         0.8870   -4.2820   -1.3190 Ca        1 MOL      1.680800
    170 O24         2.1440   -5.2630    0.9700 oh        1 MOL     -0.800522
    171 H77         1.6810   -5.1210    1.7900 ho        1 MOL      0.402154
    172 H78         3.0660   -5.1050    1.1720 ho        1 MOL      0.402154
    173 O25         1.9350   -6.8010   -1.7550 oh        1 MOL     -0.800522
    174 H79         1.2830   -7.3610   -2.1800 ho        1 MOL      0.402154
    175 H80         2.2720   -7.3230   -1.0370 ho        1 MOL      0.402154
    176 O26         1.0940   -3.9900   -3.8540 oh        1 MOL     -0.800522
    177 H81         1.7760   -4.1090   -4.5160 ho        1 MOL      0.402154
    178 H82         0.3740   -3.5520   -4.3260 ho        1 MOL      0.402154
@<TRIPOS>BOND
     1    1    2 1   
     2    1    4 1   
     3    1    5 1   
     4    1    6 1   
     5    2    3 2   
     6    2    7 1   
     7    7    8 1   
     8    7   15 1   
     9    8    9 1   
    10    8   11 1   
    11    8   16 1   
    12    9   10 2   
    13    9   19 1   
    14   11   12 1   
    15   11   17 1   
    16   11   18 1   
    17   12   13 1   
    18   12   14 1   
    19   19   20 1   
    20   19   24 1   
    21   20   21 1   
    22   20   23 1   
    23   20   25 1   
    24   21   22 2   
    25   21   29 1   
    26   23   26 1   
    27   23   27 1   
    28   23   28 1   
    29   29   30 1   
    30   29   37 1   
    31   30   31 1   
    32   30   33 1   
    33   30   38 1   
    34   31   32 2   
    35   31   41 1   
    36   33   34 1   
    37   33   39 1   
    38   33   40 1   
    39   34   35 1   
    40   34   36 1   
    41   41   42 1   
    42   41   45 1   
    43   42   43 1   
    44   42   46 1   
    45   42   47 1   
    46   43   44 2   
    47   43   48 1   
    48   48   49 1   
    49   48   56 1   
    50   49   50 1   
    51   49   52 1   
    52   49   57 1   
    53   50   51 2   
    54   50   62 1   
    55   52   53 1   
    56   52   58 1   
    57   52   59 1   
    58   53   54 1   
    59   53   55 2   
    60   54   60 1   
    61   54   61 1   
    62   62   63 1   
    63   62   66 1   
    64   63   64 1   
    65   63   67 1   
    66   63   68 1   
    67   64   65 2   
    68   64   69 1   
    69   69   70 1   
    70   69   76 1   
    71   70   71 1   
    72   70   73 1   
    73   70   77 1   
    74   71   72 2   
    75   71   83 1   
    76   73   74 1   
    77   73   75 1   
    78   73   78 1   
    79   74   80 1   
    80   74   81 1   
    81   74   82 1   
    82   75   79 1   
    83   83   84 1   
    84   83   91 1   
    85   84   85 1   
    86   84   87 1   
    87   84   92 1   
    88   85   86 2   
    89   85  102 1   
    90   87   88 1   
    91   87   89 1   
    92   87   93 1   
    93   88   90 1   
    94   88   94 1   
    95   88   95 1   
    96   89   96 1   
    97   89   97 1   
    98   89   98 1   
    99   90   99 1   
   100   90  100 1   
   101   90  101 1   
   102  102  103 1   
   103  102  110 1   
   104  103  104 1   
   105  103  106 1   
   106  103  111 1   
   107  104  105 2   
   108  104  114 1   
   109  106  107 1   
   110  106  112 1   
   111  106  113 1   
   112  107  108 1   
   113  107  109 1   
   114  114  115 1   
   115  114  125 1   
   116  115  116 1   
   117  115  118 1   
   118  115  126 1   
   119  116  117 2   
   120  116  134 1   
   121  118  119 1   
   122  118  127 1   
   123  118  128 1   
   124  119  120 ar  
   125  119  121 ar  
   126  120  122 ar  
   127  120  129 1   
   128  121  123 ar  
   129  121  130 1   
   130  122  124 ar  
   131  122  131 1   
   132  123  124 ar  
   133  123  132 1   
   134  124  133 1   
   135  134  135 1   
   136  134  140 1   
   137  135  136 1   
   138  135  138 1   
   139  135  141 1   
   140  136  137 2   
   141  136  148 1   
   142  138  139 1   
   143  138  142 1   
   144  138  143 1   
   145  139  140 1   
   146  139  144 1   
   147  139  145 1   
   148  140  146 1   
   149  140  147 1   
   150  148  149 1   
   151  148  157 1   
   152  149  150 1   
   153  149  152 1   
   154  149  158 1   
   155  150  151 2   
   156  150  163 1   
   157  152  153 1   
   158  152  159 1   
   159  152  160 1   
   160  153  154 1   
   161  153  161 1   
   162  153  162 1   
   163  154  155 1   
   164  154  156 1   
   165  163  164 1   
   166  163  168 1   
   167  164  165 1   
   168  164  166 1   
   169  164  167 1   
   170  170  171 1   
   171  170  172 1   
   172  173  174 1   
   173  173  175 1   
   174  176  177 1   
   175  176  178 1   
@<TRIPOS>SUBSTRUCTURE
     1 MOL         1 TEMP              0 ****  ****    0 ROOT
