@<TRIPOS>MOLECULE
MOL
  184   179     1     0     0
SMALL
resp


@<TRIPOS>ATOM
      1 C1          7.1780    1.0030    6.4310 c3        1 MOL     -0.360740
      2 C2          6.2910    1.3240    5.2470 c         1 MOL      0.775531
      3 O1          5.2770    2.0280    5.3850 o         1 MOL     -0.605673
      4 H1          6.6180    0.4100    7.1540 hc        1 MOL      0.085670
      5 H2          8.0470    0.4370    6.0920 hc        1 MOL      0.085670
      6 H3          7.5090    1.9290    6.9010 hc        1 MOL      0.085670
      7 N1          6.6010    0.8450    4.0910 n         1 MOL     -0.603883
      8 C3          7.8930    0.8370    3.4990 c3        1 MOL      0.277575
      9 C4          8.2300   -0.5330    2.7170 c         1 MOL      0.558914
     10 O2          7.4360   -1.4840    2.6550 o         1 MOL     -0.521117
     11 C5          8.0650    2.1260    2.6110 c3        1 MOL     -0.336620
     12 C6          7.1440    2.1030    1.3970 c         1 MOL      0.847343
     13 O3          6.0910    2.7800    1.3420 o         1 MOL     -0.788901
     14 O4          7.4130    1.3700    0.4090 o         1 MOL     -0.788901
     15 H4          5.8070    0.8470    3.4670 hn        1 MOL      0.287837
     16 H5          8.6380    0.8690    4.2880 h1        1 MOL     -0.000112
     17 H6          9.0660    2.2800    2.2140 hc        1 MOL      0.063109
     18 H7          7.8230    3.0330    3.1640 hc        1 MOL      0.063109
     19 N2          9.4540   -0.7040    2.2300 n         1 MOL     -0.691528
     20 C7         10.0350   -1.9430    1.5510 c3        1 MOL      0.428115
     21 C8          9.2060   -2.8010    0.4770 c         1 MOL      0.295888
     22 O5          9.5690   -3.8710    0.0670 o         1 MOL     -0.516030
     23 C9         10.8300   -2.7600    2.4940 c3        1 MOL     -0.219387
     24 H8         10.0950    0.0400    2.4210 hn        1 MOL      0.309332
     25 H9         10.7840   -1.5270    0.8700 h1        1 MOL     -0.001809
     26 H10        10.2340   -3.3130    3.2250 hc        1 MOL      0.048201
     27 H11        11.3560   -3.4550    1.8370 hc        1 MOL      0.048201
     28 H12        11.6240   -2.2170    3.0210 hc        1 MOL      0.048201
     29 N3          8.0070   -2.3560    0.1170 n         1 MOL     -0.085835
     30 C10         7.0840   -3.0910   -0.7110 c3        1 MOL      0.002753
     31 C11         7.0630   -2.6060   -2.2230 c         1 MOL      0.397603
     32 O6          7.7520   -1.6500   -2.5340 o         1 MOL     -0.499874
     33 C12         5.6610   -2.9900   -0.0360 c3        1 MOL     -0.208486
     34 C13         5.1070   -1.5960    0.2770 c         1 MOL      0.930953
     35 O7          4.2250   -1.5350    1.1110 o         1 MOL     -0.764048
     36 O8          5.4310   -0.5920   -0.3790 o         1 MOL     -0.764048
     37 H13         7.7680   -1.4650    0.5340 hn        1 MOL      0.148698
     38 H14         7.4130   -4.1220   -0.6210 h1        1 MOL      0.068541
     39 H15         5.6550   -3.4620    0.9400 hc        1 MOL      0.049011
     40 H16         4.8770   -3.4690   -0.6060 hc        1 MOL      0.049011
     41 N4          6.1860   -3.1860   -3.0010 n         1 MOL     -0.302074
     42 C14         5.6750   -2.6940   -4.2770 c3        1 MOL     -0.278629
     43 C15         4.3140   -1.9560   -4.1300 c         1 MOL      0.603067
     44 O9          3.7530   -1.5770   -5.1730 o         1 MOL     -0.559567
     45 H17         5.7230   -4.0040   -2.6240 hn        1 MOL      0.255349
     46 H18         5.5040   -3.5810   -4.8860 h1        1 MOL      0.145209
     47 H19         6.4140   -2.0240   -4.7010 h1        1 MOL      0.145209
     48 N5          3.6880   -2.0470   -2.9440 n         1 MOL     -0.319685
     49 C16         2.2910   -1.6820   -2.7300 c3        1 MOL     -0.048232
     50 C17         2.2580   -0.2090   -2.1540 c         1 MOL      0.560934
     51 O10         3.2970    0.5340   -1.9720 o         1 MOL     -0.536256
     52 C18         1.7480   -2.6820   -1.6680 c3        1 MOL     -0.125588
     53 C19         1.5050   -4.0480   -2.3050 c         1 MOL      0.757489
     54 N6          1.1570   -5.0430   -1.5120 n         1 MOL     -0.874364
     55 O11         1.6820   -4.2820   -3.4870 o         1 MOL     -0.555000
     56 H20         4.1760   -2.4150   -2.1350 hn        1 MOL      0.188184
     57 H21         1.6740   -1.7310   -3.6300 h1        1 MOL      0.118936
     58 H22         0.7850   -2.4070   -1.2280 hc        1 MOL      0.044683
     59 H23         2.4650   -2.7810   -0.8560 hc        1 MOL      0.044683
     60 H24         1.0600   -4.9650   -0.5080 hn        1 MOL      0.382705
     61 H25         0.7140   -5.8490   -1.9210 hn        1 MOL      0.382705
     62 N7          1.0210    0.2180   -1.9200 n         1 MOL     -0.563692
     63 C20         0.6190    1.6270   -1.7060 c3        1 MOL      0.181504
     64 C21         0.4800    2.4830   -2.9900 c         1 MOL      0.608460
     65 O12         0.8060    2.1020   -4.0920 o         1 MOL     -0.522667
     66 H26         0.1700   -0.3350   -1.9520 hn        1 MOL      0.347330
     67 H27         1.3960    2.0540   -1.0720 h1        1 MOL      0.016201
     68 H28        -0.3320    1.7260   -1.1930 h1        1 MOL      0.016201
     69 N8         -0.0020    3.7460   -2.8710 n         1 MOL     -0.621125
     70 C22        -0.3760    4.3510   -1.6250 c3        1 MOL     -0.075765
     71 C23        -1.7140    3.9380   -1.0330 c         1 MOL      0.637138
     72 O13        -2.6760    3.9930   -1.8110 o         1 MOL     -0.540119
     73 C24        -0.3310    5.9190   -1.7280 c3        1 MOL      0.346103
     74 C25        -0.5570    6.5990   -0.4070 c3        1 MOL     -0.366437
     75 O14         0.8950    6.2880   -2.2410 oh        1 MOL     -0.593589
     76 H29        -0.1690    4.3550   -3.6610 hn        1 MOL      0.342204
     77 H30         0.3980    4.1180   -0.8920 h1        1 MOL      0.112736
     78 H31        -1.0970    6.2600   -2.4240 h1        1 MOL      0.022183
     79 H32         0.7140    6.7520   -3.0630 ho        1 MOL      0.375459
     80 H33        -0.4790    7.6910   -0.4970 hc        1 MOL      0.097998
     81 H34        -1.5520    6.3940   -0.0080 hc        1 MOL      0.097998
     82 H35         0.2420    6.3840    0.2950 hc        1 MOL      0.097998
     83 N9         -1.8060    3.6530    0.2390 n         1 MOL     -0.466872
     84 C26        -3.0240    3.1400    0.8920 c3        1 MOL     -0.057895
     85 C27        -4.0050    4.2890    1.1480 c         1 MOL      0.572361
     86 O15        -3.6660    5.1390    1.9040 o         1 MOL     -0.588440
     87 C28        -2.5680    2.4270    2.2310 c3        1 MOL      0.169077
     88 C29        -1.5640    1.2080    2.0020 c3        1 MOL      0.093231
     89 C30        -3.8190    1.9610    3.0080 c3        1 MOL     -0.101997
     90 C31        -0.8810    0.6340    3.3040 c3        1 MOL     -0.357257
     91 H36        -0.9990    3.4920    0.8260 hn        1 MOL      0.182738
     92 H37        -3.4170    2.4060    0.1920 h1        1 MOL      0.054756
     93 H38        -2.1000    3.1400    2.9080 hc        1 MOL      0.011394
     94 H39        -0.8020    1.3920    1.2420 hc        1 MOL     -0.009135
     95 H40        -2.1060    0.3480    1.6060 hc        1 MOL     -0.009135
     96 H41        -4.2730    1.1270    2.4620 hc        1 MOL      0.036014
     97 H42        -3.6280    1.6720    4.0400 hc        1 MOL      0.036014
     98 H43        -4.4170    2.8810    3.0160 hc        1 MOL      0.036014
     99 H44        -1.5880    0.5940    4.1320 hc        1 MOL      0.079909
    100 H45        -0.4860   -0.3400    3.0070 hc        1 MOL      0.079909
    101 H46        -0.1480    1.3180    3.7190 hc        1 MOL      0.079909
    102 N10        -5.2160    4.3560    0.5960 n         1 MOL     -0.426989
    103 C32        -5.8490    3.3850   -0.3160 c3        1 MOL      0.189845
    104 C33        -6.4970    2.2010    0.3520 c         1 MOL      0.523262
    105 O16        -6.4730    2.0130    1.5640 o         1 MOL     -0.554886
    106 C34        -6.7870    4.1960   -1.3130 c3        1 MOL     -0.269677
    107 C35        -7.8500    5.0870   -0.6600 c         1 MOL      0.735492
    108 O17        -8.0300    6.2290   -1.0980 o         1 MOL     -0.721172
    109 O18        -8.4000    4.7270    0.3930 o         1 MOL     -0.721172
    110 H47        -5.8330    5.0070    1.0540 hn        1 MOL      0.329661
    111 H48        -5.1370    2.9470   -1.0160 h1        1 MOL      0.048053
    112 H49        -7.2890    3.5050   -1.9830 hc        1 MOL      0.032432
    113 H50        -6.1050    4.8280   -1.8900 hc        1 MOL      0.032432
    114 N11        -7.0700    1.3860   -0.5630 n         1 MOL     -0.685168
    115 C36        -7.7260    0.1570   -0.1160 c3        1 MOL      0.516645
    116 C37        -7.8380   -0.8820   -1.2880 c         1 MOL      0.189809
    117 O19        -8.2310   -0.5060   -2.4130 o         1 MOL     -0.511640
    118 C38        -9.0700    0.3810    0.5280 c3        1 MOL     -0.253283
    119 C39        -9.6850   -0.8200    1.0160 ca        1 MOL      0.058786
    120 C40       -10.5820   -1.6000    0.2900 ca        1 MOL     -0.127356
    121 C41        -9.4470   -1.1820    2.3670 ca        1 MOL     -0.127356
    122 C42       -11.2480   -2.7190    0.9090 ca        1 MOL     -0.144242
    123 C43       -10.0190   -2.2560    2.9920 ca        1 MOL     -0.144242
    124 C44       -10.9050   -3.0180    2.2370 ca        1 MOL     -0.120050
    125 H51        -7.0640    1.7110   -1.5120 hn        1 MOL      0.350067
    126 H52        -7.1010   -0.1970    0.6980 h1        1 MOL     -0.078980
    127 H53        -9.6950    0.7480   -0.2840 hc        1 MOL      0.107091
    128 H54        -9.1200    1.1040    1.3340 hc        1 MOL      0.107091
    129 H55       -10.7930   -1.3190   -0.7310 ha        1 MOL      0.112986
    130 H56        -8.7700   -0.6040    2.9760 ha        1 MOL      0.112986
    131 H57       -11.9560   -3.3560    0.4070 ha        1 MOL      0.110851
    132 H58        -9.8650   -2.4330    4.0460 ha        1 MOL      0.110851
    133 H59       -11.3890   -3.8460    2.7270 ha        1 MOL      0.086108
    134 N12        -7.6510   -2.2020   -1.1440 n         1 MOL      0.100862
    135 C45        -6.9770   -2.9070   -0.0560 c3        1 MOL      0.232112
    136 C46        -5.4440   -2.6050    0.0550 c         1 MOL      0.469630
    137 O20        -4.9340   -1.7380   -0.7390 o         1 MOL     -0.523689
    138 C47        -7.1240   -4.4120   -0.4720 c3        1 MOL     -0.183250
    139 C48        -8.5250   -4.4190   -1.1030 c3        1 MOL      0.106367
    140 C49        -8.2350   -3.2690   -2.0470 c3        1 MOL     -0.151375
    141 H60        -7.3790   -2.6630    0.9310 h1        1 MOL     -0.061960
    142 H61        -6.2380   -4.6300   -1.0770 hc        1 MOL      0.036474
    143 H62        -7.1560   -5.0890    0.3940 hc        1 MOL      0.036474
    144 H63        -8.8650   -5.3020   -1.6400 hc        1 MOL     -0.012088
    145 H64        -9.3940   -4.2650   -0.4590 hc        1 MOL     -0.012088
    146 H65        -7.5390   -3.4530   -2.8580 h1        1 MOL      0.074616
    147 H66        -9.2110   -2.9750   -2.4190 h1        1 MOL      0.074616
    148 N13        -4.6880   -3.2190    0.9940 n         1 MOL     -0.378805
    149 C50        -3.3530   -2.8000    1.4240 c3        1 MOL      0.092456
    150 C51        -3.0630   -3.4380    2.7860 c         1 MOL      0.509454
    151 O21        -2.0320   -4.0510    2.9870 o         1 MOL     -0.549653
    152 C52        -2.2920   -3.2240    0.4370 c3        1 MOL     -0.128087
    153 C53        -2.2880   -4.7310    0.0840 c3        1 MOL     -0.042706
    154 C54        -3.2990   -5.1010   -0.9910 c         1 MOL      0.747413
    155 O22        -3.2020   -4.5610   -2.1010 o         1 MOL     -0.729290
    156 O23        -4.1550   -5.9640   -0.7250 o         1 MOL     -0.729290
    157 H67        -5.0060   -4.0910    1.3950 hn        1 MOL      0.252602
    158 H68        -3.3870   -1.7260    1.6200 h1        1 MOL      0.060156
    159 H69        -1.2850   -2.9780    0.7880 hc        1 MOL      0.053967
    160 H70        -2.4180   -2.7130   -0.5170 hc        1 MOL      0.053967
    161 H71        -2.4360   -5.4000    0.9340 hc        1 MOL     -0.038820
    162 H72        -1.3460   -4.9370   -0.4250 hc        1 MOL     -0.038820
    163 N14        -3.9920   -3.4910    3.7200 n         1 MOL     -0.400135
    164 C55        -5.2360   -2.6470    4.0320 c3        1 MOL     -0.063815
    165 H73        -5.4790   -2.7350    5.0910 h1        1 MOL      0.060593
    166 H74        -5.0380   -1.6030    3.7900 h1        1 MOL      0.060593
    167 H75        -6.0770   -3.0050    3.4380 h1        1 MOL      0.060593
    168 H76        -3.6530   -3.9630    4.5510 hn        1 MOL      0.264172
    169 Ca1         5.1090    1.9810   -0.8570 Ca        1 MOL      1.811598
    170 O24         6.0180    4.5040   -1.1290 oh        1 MOL     -0.861186
    171 H77         6.9180    4.7200   -0.8820 ho        1 MOL      0.423843
    172 H78         5.7260    5.2550   -1.6460 ho        1 MOL      0.423843
    173 O25         4.5310    2.8510   -3.2270 oh        1 MOL     -0.861186
    174 H79         4.2500    2.4240   -4.0450 ho        1 MOL      0.423843
    175 H80         4.2800    3.7680   -3.3450 ho        1 MOL      0.423843
    176 O26         7.1240    1.7530   -2.5540 oh        1 MOL     -0.861186
    177 H81         7.9540    1.3980   -2.2460 ho        1 MOL      0.423843
    178 H82         7.2810    1.9890   -3.4750 ho        1 MOL      0.423843
    179 O27         3.1820    3.7880   -0.3770 oh        1 MOL     -0.861186
    180 H83         3.2590    4.7350   -0.5010 ho        1 MOL      0.423843
    181 H84         2.6470    3.6970    0.4110 ho        1 MOL      0.423843
    182 O28         3.6110    0.9680    1.3030 oh        1 MOL     -0.861186
    183 H85         3.3600    1.0240    2.2210 ho        1 MOL      0.423843
    184 H86         3.8440    0.0470    1.1770 ho        1 MOL      0.423843
@<TRIPOS>BOND
     1    1    2 1   
     2    1    4 1   
     3    1    5 1   
     4    1    6 1   
     5    2    3 2   
     6    2    7 1   
     7    7    8 1   
     8    7   15 1   
     9    8    9 1   
    10    8   11 1   
    11    8   16 1   
    12    9   10 2   
    13    9   19 1   
    14   11   12 1   
    15   11   17 1   
    16   11   18 1   
    17   12   13 1   
    18   12   14 1   
    19   19   20 1   
    20   19   24 1   
    21   20   21 1   
    22   20   23 1   
    23   20   25 1   
    24   21   22 2   
    25   21   29 1   
    26   23   26 1   
    27   23   27 1   
    28   23   28 1   
    29   29   30 1   
    30   29   37 1   
    31   30   31 1   
    32   30   33 1   
    33   30   38 1   
    34   31   32 2   
    35   31   41 1   
    36   33   34 1   
    37   33   39 1   
    38   33   40 1   
    39   34   35 1   
    40   34   36 1   
    41   41   42 1   
    42   41   45 1   
    43   42   43 1   
    44   42   46 1   
    45   42   47 1   
    46   43   44 2   
    47   43   48 1   
    48   48   49 1   
    49   48   56 1   
    50   49   50 1   
    51   49   52 1   
    52   49   57 1   
    53   50   51 2   
    54   50   62 1   
    55   52   53 1   
    56   52   58 1   
    57   52   59 1   
    58   53   54 1   
    59   53   55 2   
    60   54   60 1   
    61   54   61 1   
    62   62   63 1   
    63   62   66 1   
    64   63   64 1   
    65   63   67 1   
    66   63   68 1   
    67   64   65 2   
    68   64   69 1   
    69   69   70 1   
    70   69   76 1   
    71   70   71 1   
    72   70   73 1   
    73   70   77 1   
    74   71   72 2   
    75   71   83 1   
    76   73   74 1   
    77   73   75 1   
    78   73   78 1   
    79   74   80 1   
    80   74   81 1   
    81   74   82 1   
    82   75   79 1   
    83   83   84 1   
    84   83   91 1   
    85   84   85 1   
    86   84   87 1   
    87   84   92 1   
    88   85   86 2   
    89   85  102 1   
    90   87   88 1   
    91   87   89 1   
    92   87   93 1   
    93   88   90 1   
    94   88   94 1   
    95   88   95 1   
    96   89   96 1   
    97   89   97 1   
    98   89   98 1   
    99   90   99 1   
   100   90  100 1   
   101   90  101 1   
   102  102  103 1   
   103  102  110 1   
   104  103  104 1   
   105  103  106 1   
   106  103  111 1   
   107  104  105 2   
   108  104  114 1   
   109  106  107 1   
   110  106  112 1   
   111  106  113 1   
   112  107  108 1   
   113  107  109 1   
   114  114  115 1   
   115  114  125 1   
   116  115  116 1   
   117  115  118 1   
   118  115  126 1   
   119  116  117 2   
   120  116  134 1   
   121  118  119 1   
   122  118  127 1   
   123  118  128 1   
   124  119  120 ar  
   125  119  121 ar  
   126  120  122 ar  
   127  120  129 1   
   128  121  123 ar  
   129  121  130 1   
   130  122  124 ar  
   131  122  131 1   
   132  123  124 ar  
   133  123  132 1   
   134  124  133 1   
   135  134  135 1   
   136  134  140 1   
   137  135  136 1   
   138  135  138 1   
   139  135  141 1   
   140  136  137 2   
   141  136  148 1   
   142  138  139 1   
   143  138  142 1   
   144  138  143 1   
   145  139  140 1   
   146  139  144 1   
   147  139  145 1   
   148  140  146 1   
   149  140  147 1   
   150  148  149 1   
   151  148  157 1   
   152  149  150 1   
   153  149  152 1   
   154  149  158 1   
   155  150  151 2   
   156  150  163 1   
   157  152  153 1   
   158  152  159 1   
   159  152  160 1   
   160  153  154 1   
   161  153  161 1   
   162  153  162 1   
   163  154  155 1   
   164  154  156 1   
   165  163  164 1   
   166  163  168 1   
   167  164  165 1   
   168  164  166 1   
   169  164  167 1   
   170  170  171 1   
   171  170  172 1   
   172  173  174 1   
   173  173  175 1   
   174  176  177 1   
   175  176  178 1   
   176  179  180 1   
   177  179  181 1   
   178  182  183 1   
   179  182  184 1   
@<TRIPOS>SUBSTRUCTURE
     1 MOL         1 TEMP              0 ****  ****    0 ROOT
