@<TRIPOS>MOLECULE
MOL
  192   187     1     0     0
SMALL
resp


@<TRIPOS>ATOM
      1 C1          9.1400    1.0910    1.7030 c3        1 MOL     -0.403696
      2 C2          7.9950    0.5600    0.8360 c         1 MOL      0.670706
      3 O1          6.8480    0.3890    1.2880 o         1 MOL     -0.642880
      4 H1          8.7350    1.7290    2.4890 hc        1 MOL      0.103311
      5 H2          9.6730    0.2550    2.1530 hc        1 MOL      0.103311
      6 H3          9.8260    1.6690    1.0840 hc        1 MOL      0.103311
      7 N1          8.4040    0.0540   -0.3030 n         1 MOL     -0.471685
      8 C3          7.6320   -0.4940   -1.3470 c3        1 MOL     -0.056307
      9 C4          7.0880   -1.9120   -1.1300 c         1 MOL      0.433957
     10 O2          7.1670   -2.7060   -2.0600 o         1 MOL     -0.445264
     11 C5          8.4790   -0.4770   -2.6550 c3        1 MOL     -0.232945
     12 C6          9.8640   -1.1250   -2.5970 c         1 MOL      0.781066
     13 O3         10.3900   -1.4870   -1.5580 o         1 MOL     -0.664300
     14 O4         10.4120   -1.2230   -3.7100 o         1 MOL     -0.664300
     15 H4          9.3950   -0.0070   -0.4320 hn        1 MOL      0.253780
     16 H5          6.8320    0.2240   -1.5020 h1        1 MOL      0.157003
     17 H6          8.6910    0.5620   -2.9080 hc        1 MOL      0.084999
     18 H7          7.8980   -0.9190   -3.4670 hc        1 MOL      0.084999
     19 N2          6.4410   -2.2110   -0.0070 n         1 MOL     -0.339782
     20 C7          6.0560   -3.6050    0.3430 c3        1 MOL      0.049167
     21 C8          4.6820   -3.9480   -0.1270 c         1 MOL      0.643960
     22 O5          4.5470   -4.9940   -0.7520 o         1 MOL     -0.576942
     23 C9          6.2810   -3.9590    1.8240 c3        1 MOL      0.182583
     24 C10         7.7710   -3.6770    2.1860 c3        1 MOL     -0.138571
     25 C11         8.1500   -4.3500    3.4800 c3        1 MOL      0.007468
     26 C12         9.4150   -3.9270    4.1200 c3        1 MOL      0.080936
     27 N3          9.7550   -4.8160    5.2480 n4        1 MOL     -0.258555
     28 H8          6.4250   -1.4490    0.6560 hn        1 MOL      0.249052
     29 H9          6.7210   -4.3130   -0.1660 h1        1 MOL      0.055142
     30 H10         6.0300   -5.0150    1.9300 hc        1 MOL     -0.045009
     31 H11         5.6350   -3.4270    2.5180 hc        1 MOL     -0.045009
     32 H12         7.9010   -2.6060    2.3210 hc        1 MOL      0.066282
     33 H13         8.4390   -4.1360    1.4570 hc        1 MOL      0.066282
     34 H14         8.2100   -5.4140    3.2740 hc        1 MOL      0.017624
     35 H15         7.3740   -4.1090    4.2090 hc        1 MOL      0.017624
     36 H16         9.4080   -2.8820    4.4350 hx        1 MOL      0.066752
     37 H17        10.2140   -4.0930    3.4010 hx        1 MOL      0.066752
     38 H18         9.8830   -5.7600    4.9050 hn        1 MOL      0.265781
     39 H19        10.5980   -4.4890    5.7050 hn        1 MOL      0.265781
     40 H20         9.0660   -4.9180    5.9790 hn        1 MOL      0.265781
     41 N4          3.6200   -3.2030    0.1230 n         1 MOL     -0.598765
     42 C13         3.5530   -1.8650    0.8600 c3        1 MOL      0.072863
     43 C14         3.7360   -0.6820   -0.1140 c         1 MOL      0.424628
     44 O6          3.6800   -0.8720   -1.3350 o         1 MOL     -0.478829
     45 C15         2.2260   -1.7300    1.6250 c3        1 MOL     -0.215235
     46 C16         0.9810   -2.0790    0.7440 c         1 MOL      0.744369
     47 O7          0.7600   -1.3540   -0.2530 o         1 MOL     -0.721577
     48 O8          0.1050   -2.8120    1.1710 o         1 MOL     -0.721577
     49 H21         2.8850   -3.3240   -0.5560 hn        1 MOL      0.375494
     50 H22         4.4140   -1.7050    1.5060 h1        1 MOL      0.065231
     51 H23         2.0750   -0.7500    2.0830 hc        1 MOL      0.048573
     52 H24         2.2250   -2.4520    2.4380 hc        1 MOL      0.048573
     53 N5          3.9790    0.4860    0.4810 n         1 MOL     -0.327638
     54 C17         4.1200    1.7980   -0.1420 c3        1 MOL     -0.049443
     55 C18         2.8120    2.2530   -0.8740 c         1 MOL      0.722816
     56 O9          1.6840    1.8030   -0.6830 o         1 MOL     -0.869028
     57 H25         4.3360    0.3810    1.4200 hn        1 MOL      0.252840
     58 H26         4.9050    1.7550   -0.8950 h1        1 MOL      0.075880
     59 H27         4.4860    2.5610    0.5350 h1        1 MOL      0.075880
     60 N6          2.9480    3.4230   -1.4480 n         1 MOL     -0.589078
     61 C19         1.8610    4.1750   -2.1070 c3        1 MOL      0.571794
     62 C20         2.2950    5.6840   -2.2800 c         1 MOL      0.269761
     63 O10         3.5240    5.9560   -2.2140 o         1 MOL     -0.490020
     64 C21         1.5270    3.5570   -3.4420 c3        1 MOL     -0.210941
     65 C22         2.7590    2.8020   -4.0860 c         1 MOL      0.656015
     66 O11         2.6590    1.5470   -4.2680 o         1 MOL     -0.650145
     67 O12         3.8140    3.3750   -4.4280 o         1 MOL     -0.650145
     68 H28         3.8720    3.8190   -1.4880 hn        1 MOL      0.300573
     69 H29         1.0090    4.0850   -1.4180 h1        1 MOL     -0.065556
     70 H30         1.1800    4.2410   -4.2220 hc        1 MOL      0.008727
     71 H31         0.6790    2.9240   -3.1920 hc        1 MOL      0.008727
     72 N7          1.4770    6.6580   -2.6290 n         1 MOL     -0.305104
     73 C23         0.0260    6.6900   -2.5660 c3        1 MOL     -0.113206
     74 C24        -0.5980    6.3750   -1.2000 c         1 MOL      0.657424
     75 O13        -0.1260    6.7230   -0.1180 o         1 MOL     -0.522343
     76 H32         1.8550    7.5560   -2.8960 hn        1 MOL      0.307410
     77 H33        -0.3100    5.9330   -3.2750 h1        1 MOL      0.068896
     78 H34        -0.3090    7.6660   -2.9060 h1        1 MOL      0.068896
     79 N8         -1.7230    5.5930   -1.2280 n         1 MOL     -0.645301
     80 C25        -2.3530    5.0400   -0.0180 c3        1 MOL     -0.025371
     81 C26        -1.5430    3.8700    0.6300 c         1 MOL      0.293662
     82 O14        -0.9530    3.0090   -0.0490 o         1 MOL     -0.266705
     83 C27        -3.8020    4.6560   -0.3600 c3        1 MOL      0.482771
     84 C28        -4.5820    4.2920    0.9050 c3        1 MOL     -0.425190
     85 O15        -3.8290    3.6270   -1.2540 oh        1 MOL     -0.650117
     86 H35        -2.0380    5.2990   -2.1430 hn        1 MOL      0.336686
     87 H36        -2.4780    5.8820    0.6630 h1        1 MOL      0.123152
     88 H37        -4.3640    5.4870   -0.7730 h1        1 MOL      0.003041
     89 H38        -4.7490    3.3820   -1.3350 ho        1 MOL      0.392175
     90 H39        -4.4430    5.1010    1.6240 hc        1 MOL      0.095964
     91 H40        -5.6530    4.1350    0.7610 hc        1 MOL      0.095964
     92 H41        -4.1760    3.4090    1.4010 hc        1 MOL      0.095964
     93 N9         -1.6640    3.7400    2.0170 n         1 MOL     -0.483973
     94 C29        -0.9580    2.8000    2.9190 c3        1 MOL      0.029863
     95 C30        -1.1650    1.3130    2.5900 c         1 MOL      0.541982
     96 O16        -0.7330    0.7830    1.5370 o         1 MOL     -0.591616
     97 C31         0.5480    3.1230    3.1130 c3        1 MOL      0.119635
     98 C32         0.9800    4.5440    2.6860 c3        1 MOL      0.316255
     99 C33         1.0380    2.8290    4.5960 c3        1 MOL     -0.456211
    100 C34         2.4520    4.8950    2.8820 c3        1 MOL     -0.287128
    101 H42        -2.0360    4.5370    2.5160 hn        1 MOL      0.309225
    102 H43        -1.4160    2.8990    3.8990 h1        1 MOL      0.048093
    103 H44         1.2090    2.5370    2.4720 hc        1 MOL      0.066507
    104 H45         0.4100    5.2190    3.3170 hc        1 MOL     -0.075967
    105 H46         0.7190    4.7850    1.6590 hc        1 MOL     -0.075967
    106 H47         0.6360    1.8850    4.9640 hc        1 MOL      0.104977
    107 H48         2.1200    2.8690    4.6580 hc        1 MOL      0.104977
    108 H49         0.7230    3.6610    5.2280 hc        1 MOL      0.104977
    109 H50         2.6760    5.0210    3.9370 hc        1 MOL      0.070554
    110 H51         2.9770    3.9980    2.5500 hc        1 MOL      0.070554
    111 H52         2.7850    5.7260    2.2520 hc        1 MOL      0.070554
    112 N10        -2.1020    0.6860    3.3370 n         1 MOL     -0.312944
    113 C35        -2.5720   -0.6960    3.0320 c3        1 MOL     -0.059174
    114 C36        -4.1370   -0.8310    2.9210 c         1 MOL      0.577303
    115 O17        -4.6480   -1.8920    3.1800 o         1 MOL     -0.581612
    116 C37        -1.8790   -1.7040    3.9610 c3        1 MOL      0.330117
    117 C38        -2.0500   -1.4410    5.4420 c3        1 MOL     -0.297112
    118 O18        -0.5290   -1.6360    3.6950 oh        1 MOL     -0.553634
    119 H53        -2.6310    1.1680    4.0470 hn        1 MOL      0.233576
    120 H54        -2.2280   -0.9530    2.0350 h1        1 MOL      0.116621
    121 H55        -2.1440   -2.7340    3.6980 h1        1 MOL      0.032143
    122 H56        -0.4560   -1.9030    2.7830 ho        1 MOL      0.358197
    123 H57        -3.0920   -1.5550    5.7610 hc        1 MOL      0.069563
    124 H58        -1.3820   -2.1350    5.9400 hc        1 MOL      0.069563
    125 H59        -1.7140   -0.4170    5.6330 hc        1 MOL      0.069563
    126 N11        -4.8750    0.2460    2.4810 n         1 MOL     -0.250480
    127 C39        -6.3770    0.3800    2.5470 c3        1 MOL     -0.063490
    128 C40        -7.1170   -0.2870    1.4070 c         1 MOL      0.523381
    129 O19        -7.7100    0.3440    0.5630 o         1 MOL     -0.505820
    130 C41        -6.8300    1.8310    2.7530 c3        1 MOL      0.501106
    131 C42        -8.0230    1.9430    3.7300 c3        1 MOL     -0.180354
    132 O20        -5.8240    2.7180    3.2450 oh        1 MOL     -0.667697
    133 H60        -4.3190    1.0740    2.3170 hn        1 MOL      0.149279
    134 H61        -6.7020   -0.1230    3.4590 h1        1 MOL      0.068283
    135 H62        -7.1280    2.3310    1.8270 h1        1 MOL     -0.058587
    136 H63        -6.2450    3.5740    3.3150 ho        1 MOL      0.405885
    137 H64        -8.4600    2.9390    3.6760 hc        1 MOL      0.033500
    138 H65        -8.8810    1.2940    3.5610 hc        1 MOL      0.033500
    139 H66        -7.5550    1.8330    4.7050 hc        1 MOL      0.033500
    140 N12        -6.9200   -1.5890    1.4300 n         1 MOL     -0.691184
    141 C43        -6.6390   -2.4020    0.2100 c3        1 MOL      0.354430
    142 C44        -5.3830   -1.9610   -0.6650 c         1 MOL      0.494136
    143 O21        -4.7280   -0.9980   -0.3310 o         1 MOL     -0.523353
    144 C45        -7.8890   -2.4240   -0.7720 c3        1 MOL     -0.512635
    145 C46        -9.1630   -2.6080   -0.0140 c3        1 MOL     -0.093505
    146 C47       -10.4030   -2.8100   -0.9320 c3        1 MOL      0.143764
    147 C48       -11.7230   -2.7520   -0.1890 c3        1 MOL      0.009449
    148 N13       -12.7780   -3.2710   -1.0870 n4        1 MOL     -0.158519
    149 H67        -6.4890   -1.9220    2.2790 hn        1 MOL      0.370002
    150 H68        -6.4420   -3.4100    0.5650 h1        1 MOL      0.035433
    151 H69        -7.7520   -3.1840   -1.5380 hc        1 MOL      0.164146
    152 H70        -7.9470   -1.5130   -1.3490 hc        1 MOL      0.164146
    153 H71        -9.4020   -1.7330    0.5880 hc        1 MOL      0.080388
    154 H72        -9.1300   -3.4710    0.6500 hc        1 MOL      0.080388
    155 H73       -10.4400   -3.8200   -1.3390 hc        1 MOL      0.000446
    156 H74       -10.5020   -2.0880   -1.7400 hc        1 MOL      0.000446
    157 H75       -11.9530   -1.6970    0.0000 hx        1 MOL      0.063710
    158 H76       -11.7340   -3.2680    0.7780 hx        1 MOL      0.063710
    159 H77       -12.7590   -4.2390   -1.3490 hn        1 MOL      0.202237
    160 H78       -13.6670   -3.2100   -0.6040 hn        1 MOL      0.202237
    161 H79       -12.8610   -2.7120   -1.9220 hn        1 MOL      0.202237
    162 N14        -4.9580   -2.8850   -1.5160 n         1 MOL     -0.518104
    163 C49        -3.7520   -2.7250   -2.3340 c3        1 MOL      0.188287
    164 C50        -2.5270   -2.5770   -1.4720 c         1 MOL      0.525078
    165 O22        -1.9110   -1.5450   -1.4870 o         1 MOL     -0.729937
    166 C51        -3.6400   -3.9350   -3.2800 c3        1 MOL      0.095150
    167 C52        -4.8080   -3.9650   -4.2250 c3        1 MOL     -0.199115
    168 C53        -4.6870   -5.1600   -5.1540 c         1 MOL      0.717153
    169 O23        -5.1430   -5.0810   -6.3060 o         1 MOL     -0.662207
    170 O24        -4.1900   -6.2350   -4.7230 o         1 MOL     -0.662207
    171 H80        -5.4610   -3.7550   -1.6220 hn        1 MOL      0.328073
    172 H81        -3.8920   -1.7940   -2.8770 h1        1 MOL      0.057461
    173 H82        -3.6150   -4.9140   -2.8060 hc        1 MOL      0.005338
    174 H83        -2.7030   -3.8780   -3.8240 hc        1 MOL      0.005338
    175 H84        -4.9080   -3.0310   -4.7910 hc        1 MOL     -0.008960
    176 H85        -5.7230   -4.0270   -3.6400 hc        1 MOL     -0.008960
    177 N15        -2.1700   -3.5420   -0.5950 n         1 MOL     -0.421152
    178 C54        -2.5880   -4.8060   -0.0470 c3        1 MOL     -0.016519
    179 H86        -1.9810   -5.6050   -0.4740 h1        1 MOL      0.043187
    180 H87        -2.4610   -4.7930    1.0350 h1        1 MOL      0.043187
    181 H88        -3.6370   -4.9780   -0.2880 h1        1 MOL      0.043187
    182 H89        -1.2900   -3.2810   -0.1790 hn        1 MOL      0.401187
    183 Ca1        -0.5870    0.6200   -1.0430 Ca        1 MOL      1.890294
    184 O25         1.3450   -0.1500   -2.8810 oh        1 MOL     -0.923362
    185 H90         1.7890    0.3800   -3.5470 ho        1 MOL      0.438192
    186 H91         2.0520   -0.6410   -2.4610 ho        1 MOL      0.438192
    187 O26        -1.8990    1.7250   -3.0530 oh        1 MOL     -0.923362
    188 H92        -2.1230    1.2320   -3.8400 ho        1 MOL      0.438192
    189 H93        -2.5080    2.4540   -3.0390 ho        1 MOL      0.438192
    190 O27        -3.1230    1.1380   -0.6420 oh        1 MOL     -0.923362
    191 H94        -3.8430    0.5340   -0.4510 ho        1 MOL      0.438192
    192 H95        -3.5300    1.8310   -1.1530 ho        1 MOL      0.438192
@<TRIPOS>BOND
     1    1    2 1   
     2    1    4 1   
     3    1    5 1   
     4    1    6 1   
     5    2    3 2   
     6    2    7 1   
     7    7    8 1   
     8    7   15 1   
     9    8    9 1   
    10    8   11 1   
    11    8   16 1   
    12    9   10 2   
    13    9   19 1   
    14   11   12 1   
    15   11   17 1   
    16   11   18 1   
    17   12   13 1   
    18   12   14 1   
    19   19   20 1   
    20   19   28 1   
    21   20   21 1   
    22   20   23 1   
    23   20   29 1   
    24   21   22 2   
    25   21   41 1   
    26   23   24 1   
    27   23   30 1   
    28   23   31 1   
    29   24   25 1   
    30   24   32 1   
    31   24   33 1   
    32   25   26 1   
    33   25   34 1   
    34   25   35 1   
    35   26   27 1   
    36   26   36 1   
    37   26   37 1   
    38   27   38 1   
    39   27   39 1   
    40   27   40 1   
    41   41   42 1   
    42   41   49 1   
    43   42   43 1   
    44   42   45 1   
    45   42   50 1   
    46   43   44 2   
    47   43   53 1   
    48   45   46 1   
    49   45   51 1   
    50   45   52 1   
    51   46   47 1   
    52   46   48 1   
    53   53   54 1   
    54   53   57 1   
    55   54   55 1   
    56   54   58 1   
    57   54   59 1   
    58   55   56 2   
    59   55   60 1   
    60   60   61 1   
    61   60   68 1   
    62   61   62 1   
    63   61   64 1   
    64   61   69 1   
    65   62   63 2   
    66   62   72 1   
    67   64   65 1   
    68   64   70 1   
    69   64   71 1   
    70   65   66 1   
    71   65   67 1   
    72   72   73 1   
    73   72   76 1   
    74   73   74 1   
    75   73   77 1   
    76   73   78 1   
    77   74   75 2   
    78   74   79 1   
    79   79   80 1   
    80   79   86 1   
    81   80   81 1   
    82   80   83 1   
    83   80   87 1   
    84   81   82 2   
    85   81   93 1   
    86   83   84 1   
    87   83   85 1   
    88   83   88 1   
    89   84   90 1   
    90   84   91 1   
    91   84   92 1   
    92   85   89 1   
    93   93   94 1   
    94   93  101 1   
    95   94   95 1   
    96   94   97 1   
    97   94  102 1   
    98   95   96 2   
    99   95  112 1   
   100   97   98 1   
   101   97   99 1   
   102   97  103 1   
   103   98  100 1   
   104   98  104 1   
   105   98  105 1   
   106   99  106 1   
   107   99  107 1   
   108   99  108 1   
   109  100  109 1   
   110  100  110 1   
   111  100  111 1   
   112  112  113 1   
   113  112  119 1   
   114  113  114 1   
   115  113  116 1   
   116  113  120 1   
   117  114  115 2   
   118  114  126 1   
   119  116  117 1   
   120  116  118 1   
   121  116  121 1   
   122  117  123 1   
   123  117  124 1   
   124  117  125 1   
   125  118  122 1   
   126  126  127 1   
   127  126  133 1   
   128  127  128 1   
   129  127  130 1   
   130  127  134 1   
   131  128  129 2   
   132  128  140 1   
   133  130  131 1   
   134  130  132 1   
   135  130  135 1   
   136  131  137 1   
   137  131  138 1   
   138  131  139 1   
   139  132  136 1   
   140  140  141 1   
   141  140  149 1   
   142  141  142 1   
   143  141  144 1   
   144  141  150 1   
   145  142  143 2   
   146  142  162 1   
   147  144  145 1   
   148  144  151 1   
   149  144  152 1   
   150  145  146 1   
   151  145  153 1   
   152  145  154 1   
   153  146  147 1   
   154  146  155 1   
   155  146  156 1   
   156  147  148 1   
   157  147  157 1   
   158  147  158 1   
   159  148  159 1   
   160  148  160 1   
   161  148  161 1   
   162  162  163 1   
   163  162  171 1   
   164  163  164 1   
   165  163  166 1   
   166  163  172 1   
   167  164  165 2   
   168  164  177 1   
   169  166  167 1   
   170  166  173 1   
   171  166  174 1   
   172  167  168 1   
   173  167  175 1   
   174  167  176 1   
   175  168  169 1   
   176  168  170 1   
   177  177  178 1   
   178  177  182 1   
   179  178  179 1   
   180  178  180 1   
   181  178  181 1   
   182  184  185 1   
   183  184  186 1   
   184  187  188 1   
   185  187  189 1   
   186  190  191 1   
   187  190  192 1   
@<TRIPOS>SUBSTRUCTURE
     1 MOL         1 TEMP              0 ****  ****    0 ROOT
