@<TRIPOS>MOLECULE
MOL
  184   179     1     0     0
SMALL
resp


@<TRIPOS>ATOM
      1 C1          7.8100    5.8650   -2.5840 c3        1 MOL     -0.308209
      2 C2          6.9280    4.9930   -1.6820 c         1 MOL      0.571858
      3 O1          6.2810    5.4960   -0.6870 o         1 MOL     -0.595860
      4 H1          8.5730    5.2450   -3.0550 hc        1 MOL      0.082484
      5 H2          7.1960    6.3310   -3.3540 hc        1 MOL      0.082484
      6 H3          8.2910    6.6380   -1.9850 hc        1 MOL      0.082484
      7 N1          6.9100    3.6680   -1.8430 n         1 MOL     -0.277746
      8 C3          7.7340    2.7800   -2.6780 c3        1 MOL      0.024186
      9 C4          8.7530    1.8650   -1.9350 c         1 MOL      0.408919
     10 O2          9.3010    0.9250   -2.4710 o         1 MOL     -0.516790
     11 C5          6.8130    2.0830   -3.7080 c3        1 MOL     -0.133428
     12 C6          5.4620    1.5720   -3.2290 c         1 MOL      0.707728
     13 O3          4.5800    1.3810   -4.1320 o         1 MOL     -0.692503
     14 O4          5.3320    1.3120   -1.9960 o         1 MOL     -0.692503
     15 H4          6.2480    3.1870   -1.2560 hn        1 MOL      0.205082
     16 H5          8.4160    3.3870   -3.2740 h1        1 MOL      0.087379
     17 H6          7.4280    1.2670   -4.0820 hc        1 MOL      0.034611
     18 H7          6.6380    2.8410   -4.4600 hc        1 MOL      0.034611
     19 N2          8.9210    2.1160   -0.6460 n         1 MOL     -0.262359
     20 C7          9.9430    1.5140    0.2400 c3        1 MOL      0.036155
     21 C8          9.3720    0.2890    1.0590 c         1 MOL      0.432848
     22 O5         10.0950   -0.5450    1.5360 o         1 MOL     -0.543198
     23 C9         10.4370    2.5680    1.2030 c3        1 MOL     -0.177550
     24 H8          8.3830    2.8790   -0.2550 hn        1 MOL      0.179359
     25 H9         10.7260    1.1550   -0.4290 h1        1 MOL      0.084541
     26 H10        11.4190    2.3390    1.6190 hc        1 MOL      0.058419
     27 H11        10.6000    3.4730    0.6100 hc        1 MOL      0.058419
     28 H12         9.8230    2.7390    2.0880 hc        1 MOL      0.058419
     29 N3          8.0640    0.2610    1.1890 n         1 MOL     -0.276455
     30 C10         7.2630   -0.9070    1.6510 c3        1 MOL      0.031724
     31 C11         6.6590   -1.7550    0.5150 c         1 MOL      0.324434
     32 O6          6.2930   -2.9250    0.7320 o         1 MOL     -0.504031
     33 C12         6.2200   -0.4280    2.6250 c3        1 MOL     -0.210711
     34 C13         5.3460    0.6920    2.1000 c         1 MOL      0.701389
     35 O7          4.6450    1.3060    2.9010 o         1 MOL     -0.708605
     36 O8          5.2510    1.0380    0.8980 o         1 MOL     -0.708605
     37 H13         7.5090    1.0030    0.7850 hn        1 MOL      0.230060
     38 H14         7.9420   -1.4660    2.2940 h1        1 MOL      0.108774
     39 H15         6.8400   -0.1020    3.4560 hc        1 MOL      0.091622
     40 H16         5.5860   -1.2350    3.0010 hc        1 MOL      0.091622
     41 N4          6.6110   -1.2200   -0.7350 n         1 MOL     -0.030836
     42 C14         6.1490   -1.8580   -1.9830 c3        1 MOL     -0.407566
     43 C15         4.6050   -1.9330   -2.0880 c         1 MOL      0.770378
     44 O9          3.8350   -0.9950   -1.8940 o         1 MOL     -0.594913
     45 H17         6.8110   -0.2440   -0.8640 hn        1 MOL      0.161692
     46 H18         6.5330   -2.8790   -2.0230 h1        1 MOL      0.142509
     47 H19         6.5370   -1.2940   -2.8350 h1        1 MOL      0.142509
     48 N5          4.1200   -3.0650   -2.5440 n         1 MOL     -0.483765
     49 C16         2.7120   -3.4150   -2.6710 c3        1 MOL      0.197272
     50 C17         2.0020   -3.4430   -1.2760 c         1 MOL      0.271764
     51 O10         0.7610   -3.1870   -1.1360 o         1 MOL     -0.421324
     52 C18         2.7520   -4.7330   -3.4580 c3        1 MOL     -0.313260
     53 C19         1.3730   -5.2350   -3.8010 c         1 MOL      0.675324
     54 N6          0.8470   -6.2550   -3.0970 n         1 MOL     -0.812601
     55 O11         0.7600   -4.7670   -4.7830 o         1 MOL     -0.523586
     56 H20         4.8280   -3.7080   -2.8610 hn        1 MOL      0.261401
     57 H21         2.3230   -2.5840   -3.2550 h1        1 MOL      0.122032
     58 H22         3.1280   -5.5190   -2.8050 hc        1 MOL      0.076981
     59 H23         3.4030   -4.6490   -4.3320 hc        1 MOL      0.076981
     60 H24         1.2800   -6.6060   -2.2600 hn        1 MOL      0.370236
     61 H25        -0.0750   -6.6180   -3.3070 hn        1 MOL      0.370236
     62 N7          2.8260   -3.5490   -0.2610 n         1 MOL     -0.185037
     63 C20         2.5360   -3.4550    1.1460 c3        1 MOL     -0.351218
     64 C21         2.8960   -2.0900    1.7470 c         1 MOL      0.859118
     65 O12         3.4590   -1.3250    0.9880 o         1 MOL     -0.830719
     66 H26         3.8020   -3.6560   -0.4990 hn        1 MOL      0.221232
     67 H27         3.1590   -4.2310    1.5980 h1        1 MOL      0.150217
     68 H28         1.4810   -3.6640    1.3200 h1        1 MOL      0.150217
     69 N8          2.5390   -1.6320    2.9860 n         1 MOL     -0.498023
     70 C22         1.7350   -2.3330    3.9710 c3        1 MOL      0.002662
     71 C23         0.2390   -2.1320    3.8160 c         1 MOL      0.642507
     72 O13        -0.4360   -3.1210    4.0180 o         1 MOL     -0.586138
     73 C24         2.0860   -1.7760    5.3260 c3        1 MOL      0.241779
     74 C25         3.5500   -2.1870    5.6430 c3        1 MOL     -0.278814
     75 O14         2.0640   -0.3820    5.4300 oh        1 MOL     -0.535481
     76 H29         2.8310   -0.6790    3.1410 hn        1 MOL      0.315820
     77 H30         1.8970   -3.4090    3.8770 h1        1 MOL      0.049551
     78 H31         1.3250   -2.2290    5.9540 h1        1 MOL      0.032070
     79 H32         1.7290   -0.0970    6.2860 ho        1 MOL      0.391141
     80 H33         3.7830   -1.9110    6.6720 hc        1 MOL      0.063607
     81 H34         3.7130   -3.2530    5.5040 hc        1 MOL      0.063607
     82 H35         4.2620   -1.6480    5.0260 hc        1 MOL      0.063607
     83 N9         -0.2600   -0.9120    3.5150 n         1 MOL     -0.574444
     84 C26        -1.7350   -0.6180    3.3870 c3        1 MOL      0.085440
     85 C27        -1.9680    0.4450    2.4010 c         1 MOL      0.628743
     86 O15        -1.5990    1.5960    2.6090 o         1 MOL     -0.551798
     87 C28        -2.2800   -0.2990    4.7780 c3        1 MOL      0.061584
     88 C29        -2.2290   -1.3320    5.8510 c3        1 MOL      0.069652
     89 C30        -3.7720    0.2240    4.6410 c3        1 MOL     -0.141580
     90 C31        -3.1290   -2.6080    5.6180 c3        1 MOL     -0.086865
     91 H36         0.4080   -0.1470    3.5420 hn        1 MOL      0.244165
     92 H37        -2.2650   -1.4810    2.9730 h1        1 MOL      0.153881
     93 H38        -1.6960    0.5490    5.1630 hc        1 MOL     -0.002672
     94 H39        -2.6170   -0.8480    6.7520 hc        1 MOL     -0.030203
     95 H40        -1.2410   -1.7120    6.0800 hc        1 MOL     -0.030203
     96 H41        -3.8880    1.1290    4.0450 hc        1 MOL      0.044260
     97 H42        -4.4640   -0.4800    4.1860 hc        1 MOL      0.044260
     98 H43        -4.1580    0.3970    5.6540 hc        1 MOL      0.044260
     99 H44        -2.7300   -3.3620    6.2850 hc        1 MOL      0.005152
    100 H45        -4.1850   -2.3980    5.8170 hc        1 MOL      0.005152
    101 H46        -3.1160   -2.9010    4.5660 hc        1 MOL      0.005152
    102 N10        -2.6540    0.3020    1.2660 n         1 MOL     -0.519922
    103 C32        -3.3320   -0.8860    0.7410 c3        1 MOL      0.007090
    104 C33        -4.7460   -0.4880    0.1830 c         1 MOL      0.742064
    105 O16        -5.0270    0.6460   -0.1770 o         1 MOL     -0.548426
    106 C34        -2.4530   -1.6680   -0.2290 c3        1 MOL     -0.019565
    107 C35        -1.8680   -0.9020   -1.4570 c         1 MOL      0.550974
    108 O17        -1.4890    0.2530   -1.1780 o         1 MOL     -0.624163
    109 O18        -1.6390   -1.5290   -2.4930 o         1 MOL     -0.624163
    110 H47        -2.5180    1.0540    0.6050 hn        1 MOL      0.318545
    111 H48        -3.5740   -1.5540    1.5620 h1        1 MOL     -0.007131
    112 H49        -3.1220   -2.4470   -0.5640 hc        1 MOL     -0.016269
    113 H50        -1.6430   -2.1820    0.3020 hc        1 MOL     -0.016269
    114 N11        -5.6040   -1.4880    0.1940 n         1 MOL     -0.813321
    115 C36        -6.9410   -1.4030   -0.3260 c3        1 MOL      0.829884
    116 C37        -7.8770   -0.8880    0.7710 c         1 MOL      0.161356
    117 O19        -7.6600   -1.2590    1.9330 o         1 MOL     -0.489433
    118 C38        -7.4710   -2.7980   -0.8130 c3        1 MOL     -0.219049
    119 C39        -6.7810   -3.3050   -2.0400 ca        1 MOL     -0.010733
    120 C40        -6.6110   -2.4880   -3.1540 ca        1 MOL     -0.062012
    121 C41        -6.3600   -4.6370   -2.0370 ca        1 MOL     -0.062012
    122 C42        -6.0170   -3.0100   -4.3240 ca        1 MOL     -0.251408
    123 C43        -5.6630   -5.1800   -3.1620 ca        1 MOL     -0.251408
    124 C44        -5.5060   -4.3240   -4.2800 ca        1 MOL      0.078953
    125 H51        -5.2630   -2.4050    0.4490 hn        1 MOL      0.333341
    126 H52        -7.0300   -0.6710   -1.1300 h1        1 MOL     -0.059227
    127 H53        -8.5270   -2.6360   -1.0450 hc        1 MOL      0.031886
    128 H54        -7.3390   -3.4400    0.0580 hc        1 MOL      0.031886
    129 H55        -7.1740   -1.5580   -3.2150 ha        1 MOL      0.078576
    130 H56        -6.5900   -5.2300   -1.1630 ha        1 MOL      0.078576
    131 H57        -5.9650   -2.3910   -5.2080 ha        1 MOL      0.150251
    132 H58        -5.3560   -6.2050   -3.2830 ha        1 MOL      0.150251
    133 H59        -5.1190   -4.8680   -5.1280 ha        1 MOL      0.042159
    134 N12        -9.0330   -0.2260    0.4780 n         1 MOL     -0.068203
    135 C45        -9.4600    0.3050   -0.8290 c3        1 MOL      0.297534
    136 C46        -8.5490    1.4030   -1.2900 c         1 MOL      0.132507
    137 O20        -8.0890    1.4010   -2.3950 o         1 MOL     -0.439308
    138 C47       -10.8640    0.8610   -0.7120 c3        1 MOL     -0.174173
    139 C48       -11.3590    0.1000    0.4910 c3        1 MOL      0.030588
    140 C49       -10.1730   -0.3630    1.3350 c3        1 MOL     -0.024137
    141 H60        -9.3970   -0.3870   -1.6630 h1        1 MOL     -0.031984
    142 H61       -10.8580    1.9200   -0.4510 hc        1 MOL      0.067206
    143 H62       -11.5730    0.5960   -1.4980 hc        1 MOL      0.067206
    144 H63       -12.0590    0.6540    1.1170 hc        1 MOL     -0.005190
    145 H64       -11.8850   -0.7690    0.0970 hc        1 MOL     -0.005190
    146 H65       -10.0420    0.1140    2.3050 h1        1 MOL      0.037091
    147 H66       -10.3230   -1.4390    1.4670 h1        1 MOL      0.037091
    148 N13        -8.3410    2.4870   -0.5060 n         1 MOL     -0.314216
    149 C50        -7.5880    3.6560   -0.9920 c3        1 MOL      0.230784
    150 C51        -8.5330    4.5210   -1.8490 c         1 MOL      0.325079
    151 O21        -9.1840    5.4040   -1.2390 o         1 MOL     -0.538431
    152 C52        -7.0150    4.5480    0.1440 c3        1 MOL     -0.058972
    153 C53        -6.0990    3.6740    1.0600 c3        1 MOL     -0.285546
    154 C54        -5.6360    4.5220    2.2280 c         1 MOL      0.793404
    155 O22        -4.4310    4.8090    2.4130 o         1 MOL     -0.767670
    156 O23        -6.4970    4.9210    3.0430 o         1 MOL     -0.767670
    157 H67        -8.6880    2.4320    0.4360 hn        1 MOL      0.268746
    158 H68        -6.7210    3.3030   -1.5530 h1        1 MOL      0.090888
    159 H69        -7.8190    5.0580    0.6680 hc        1 MOL      0.036484
    160 H70        -6.4240    5.2760   -0.3940 hc        1 MOL      0.036484
    161 H71        -5.2520    3.2020    0.5820 hc        1 MOL      0.051955
    162 H72        -6.7070    2.8840    1.5170 hc        1 MOL      0.051955
    163 N14        -8.5090    4.4460   -3.1900 n         1 MOL     -0.309388
    164 C55        -7.5040    3.8100   -4.0740 c3        1 MOL     -0.044432
    165 H73        -6.6360    3.5160   -3.4850 h1        1 MOL      0.051083
    166 H74        -7.9400    2.9270   -4.5430 h1        1 MOL      0.051083
    167 H75        -7.1980    4.5180   -4.8440 h1        1 MOL      0.051083
    168 H76        -9.1650    4.9940   -3.7360 hn        1 MOL      0.244342
    169 Ca1         3.1760    1.0850   -0.5390 Ca        1 MOL      1.849969
    170 O24         0.8560    2.9490   -0.4550 oh        1 MOL     -0.884810
    171 H77         0.0210    2.7200   -0.8700 ho        1 MOL      0.425655
    172 H78         0.6740    3.7460    0.0340 ho        1 MOL      0.425655
    173 O25         2.2310    1.4000   -2.9580 oh        1 MOL     -0.884810
    174 H79         2.9740    1.4730   -3.5630 ho        1 MOL      0.425655
    175 H80         1.4820    1.2460   -3.5230 ho        1 MOL      0.425655
    176 O26         3.9260    3.7970   -0.3200 oh        1 MOL     -0.884810
    177 H81         3.4180    4.2920    0.3270 ho        1 MOL      0.425655
    178 H82         4.8200    4.1140   -0.2040 ho        1 MOL      0.425655
    179 O27         0.9710   -0.5270   -0.6490 oh        1 MOL     -0.884810
    180 H83         0.8190   -1.4690   -0.6530 ho        1 MOL      0.425655
    181 H84         0.1080   -0.1440   -0.7730 ho        1 MOL      0.425655
    182 O28         2.2570    1.4530    1.9530 oh        1 MOL     -0.884810
    183 H85         3.0840    1.4870    2.4490 ho        1 MOL      0.425655
    184 H86         1.6010    1.7960    2.5510 ho        1 MOL      0.425655
@<TRIPOS>BOND
     1    1    2 1   
     2    1    4 1   
     3    1    5 1   
     4    1    6 1   
     5    2    3 2   
     6    2    7 1   
     7    7    8 1   
     8    7   15 1   
     9    8    9 1   
    10    8   11 1   
    11    8   16 1   
    12    9   10 2   
    13    9   19 1   
    14   11   12 1   
    15   11   17 1   
    16   11   18 1   
    17   12   13 1   
    18   12   14 1   
    19   19   20 1   
    20   19   24 1   
    21   20   21 1   
    22   20   23 1   
    23   20   25 1   
    24   21   22 2   
    25   21   29 1   
    26   23   26 1   
    27   23   27 1   
    28   23   28 1   
    29   29   30 1   
    30   29   37 1   
    31   30   31 1   
    32   30   33 1   
    33   30   38 1   
    34   31   32 2   
    35   31   41 1   
    36   33   34 1   
    37   33   39 1   
    38   33   40 1   
    39   34   35 1   
    40   34   36 1   
    41   41   42 1   
    42   41   45 1   
    43   42   43 1   
    44   42   46 1   
    45   42   47 1   
    46   43   44 2   
    47   43   48 1   
    48   48   49 1   
    49   48   56 1   
    50   49   50 1   
    51   49   52 1   
    52   49   57 1   
    53   50   51 2   
    54   50   62 1   
    55   52   53 1   
    56   52   58 1   
    57   52   59 1   
    58   53   54 1   
    59   53   55 2   
    60   54   60 1   
    61   54   61 1   
    62   62   63 1   
    63   62   66 1   
    64   63   64 1   
    65   63   67 1   
    66   63   68 1   
    67   64   65 2   
    68   64   69 1   
    69   69   70 1   
    70   69   76 1   
    71   70   71 1   
    72   70   73 1   
    73   70   77 1   
    74   71   72 2   
    75   71   83 1   
    76   73   74 1   
    77   73   75 1   
    78   73   78 1   
    79   74   80 1   
    80   74   81 1   
    81   74   82 1   
    82   75   79 1   
    83   83   84 1   
    84   83   91 1   
    85   84   85 1   
    86   84   87 1   
    87   84   92 1   
    88   85   86 2   
    89   85  102 1   
    90   87   88 1   
    91   87   89 1   
    92   87   93 1   
    93   88   90 1   
    94   88   94 1   
    95   88   95 1   
    96   89   96 1   
    97   89   97 1   
    98   89   98 1   
    99   90   99 1   
   100   90  100 1   
   101   90  101 1   
   102  102  103 1   
   103  102  110 1   
   104  103  104 1   
   105  103  106 1   
   106  103  111 1   
   107  104  105 2   
   108  104  114 1   
   109  106  107 1   
   110  106  112 1   
   111  106  113 1   
   112  107  108 1   
   113  107  109 1   
   114  114  115 1   
   115  114  125 1   
   116  115  116 1   
   117  115  118 1   
   118  115  126 1   
   119  116  117 2   
   120  116  134 1   
   121  118  119 1   
   122  118  127 1   
   123  118  128 1   
   124  119  120 ar  
   125  119  121 ar  
   126  120  122 ar  
   127  120  129 1   
   128  121  123 ar  
   129  121  130 1   
   130  122  124 ar  
   131  122  131 1   
   132  123  124 ar  
   133  123  132 1   
   134  124  133 1   
   135  134  135 1   
   136  134  140 1   
   137  135  136 1   
   138  135  138 1   
   139  135  141 1   
   140  136  137 2   
   141  136  148 1   
   142  138  139 1   
   143  138  142 1   
   144  138  143 1   
   145  139  140 1   
   146  139  144 1   
   147  139  145 1   
   148  140  146 1   
   149  140  147 1   
   150  148  149 1   
   151  148  157 1   
   152  149  150 1   
   153  149  152 1   
   154  149  158 1   
   155  150  151 2   
   156  150  163 1   
   157  152  153 1   
   158  152  159 1   
   159  152  160 1   
   160  153  154 1   
   161  153  161 1   
   162  153  162 1   
   163  154  155 1   
   164  154  156 1   
   165  163  164 1   
   166  163  168 1   
   167  164  165 1   
   168  164  166 1   
   169  164  167 1   
   170  170  171 1   
   171  170  172 1   
   172  173  174 1   
   173  173  175 1   
   174  176  177 1   
   175  176  178 1   
   176  179  180 1   
   177  179  181 1   
   178  182  183 1   
   179  182  184 1   
@<TRIPOS>SUBSTRUCTURE
     1 MOL         1 TEMP              0 ****  ****    0 ROOT
