@<TRIPOS>MOLECULE
MOL
  182   178     1     0     0
SMALL
resp


@<TRIPOS>ATOM
      1 C1          0.1060   -4.2070    6.2420 c3        1 MOL     -0.424130
      2 C2          0.1090   -3.8680    4.7340 c         1 MOL      0.761670
      3 O1         -0.9510   -3.6970    4.1840 o         1 MOL     -0.594517
      4 H1         -0.2170   -3.3340    6.8090 hc        1 MOL      0.117506
      5 H2         -0.5790   -5.0340    6.4270 hc        1 MOL      0.117506
      6 H3          1.1120   -4.4910    6.5530 hc        1 MOL      0.117506
      7 N1          1.2900   -3.8000    4.0820 n         1 MOL     -0.563280
      8 C3          1.5090   -3.6460    2.6510 c3        1 MOL      0.067767
      9 C4          1.4440   -4.8700    1.7790 c         1 MOL      0.540039
     10 O2          1.4530   -5.9790    2.3270 o         1 MOL     -0.534740
     11 C5          2.9040   -2.9530    2.5030 c3        1 MOL     -0.292478
     12 C6          3.0700   -1.9860    1.2930 c         1 MOL      0.423743
     13 O3          3.9720   -1.1420    1.2600 o         1 MOL     -0.599614
     14 O4          2.3070   -2.1350    0.3570 o         1 MOL     -0.599614
     15 H4          2.0710   -3.8180    4.7280 hn        1 MOL      0.296776
     16 H5          0.7300   -2.9740    2.2930 h1        1 MOL     -0.015765
     17 H6          3.6540   -3.7500    2.5310 hc        1 MOL      0.145618
     18 H7          3.1760   -2.4050    3.4030 hc        1 MOL      0.145618
     19 N2          1.2400   -4.6620    0.4420 n         1 MOL     -0.418254
     20 C7          1.1110   -5.6310   -0.6520 c3        1 MOL     -0.020055
     21 C8          2.1850   -5.4510   -1.7270 c         1 MOL      0.518999
     22 O5          2.3860   -6.4030   -2.5070 o         1 MOL     -0.551172
     23 C9         -0.2810   -5.4730   -1.2790 c3        1 MOL      0.160109
     24 C10        -1.4490   -5.7590   -0.3820 c3        1 MOL      0.237740
     25 C11        -2.7780   -5.9140   -1.1540 c3        1 MOL     -0.133885
     26 C12        -3.8310   -6.1240   -0.0820 c3        1 MOL     -0.086140
     27 N3         -4.2810   -4.8360    0.4730 n4        1 MOL     -0.251806
     28 H8          1.2600   -3.6990    0.1430 hn        1 MOL      0.291237
     29 H9          1.0950   -6.6670   -0.3360 h1        1 MOL      0.108819
     30 H10        -0.3250   -6.0940   -2.1700 hc        1 MOL     -0.079672
     31 H11        -0.4240   -4.4180   -1.5020 hc        1 MOL     -0.079672
     32 H12        -1.5730   -4.9770    0.3640 hc        1 MOL     -0.044440
     33 H13        -1.2960   -6.6790    0.1790 hc        1 MOL     -0.044440
     34 H14        -2.7060   -6.7680   -1.8290 hc        1 MOL      0.056073
     35 H15        -2.8780   -4.9950   -1.7260 hc        1 MOL      0.056073
     36 H16        -3.3980   -6.7430    0.7070 hx        1 MOL      0.124879
     37 H17        -4.6840   -6.6920   -0.4540 hx        1 MOL      0.124879
     38 H18        -3.5580   -4.1950    0.7610 hn        1 MOL      0.273273
     39 H19        -4.7840   -4.2710   -0.1980 hn        1 MOL      0.273273
     40 H20        -4.9170   -4.9700    1.2560 hn        1 MOL      0.273273
     41 N4          2.9840   -4.3670   -1.7930 n         1 MOL     -0.291757
     42 C13         4.2440   -4.3690   -2.6050 c3        1 MOL     -0.051458
     43 C14         5.5660   -4.0830   -1.8020 c         1 MOL      0.518355
     44 O6          6.7000   -4.2490   -2.1820 o         1 MOL     -0.544491
     45 C15         4.0430   -3.2840   -3.7270 c3        1 MOL     -0.341128
     46 C16         3.7310   -1.8740   -3.3080 c         1 MOL      0.699703
     47 O7          3.4780   -1.0400   -4.1950 o         1 MOL     -0.692546
     48 O8          3.8700   -1.4970   -2.1060 o         1 MOL     -0.692546
     49 H21         2.6270   -3.5590   -1.3030 hn        1 MOL      0.159771
     50 H22         4.5710   -5.3310   -3.0070 h1        1 MOL      0.137758
     51 H23         3.1370   -3.5040   -4.2830 hc        1 MOL      0.126477
     52 H24         4.8330   -3.4200   -4.4720 hc        1 MOL      0.126477
     53 N5          5.3350   -3.6640   -0.5570 n         1 MOL     -0.153913
     54 C17         6.3340   -3.3560    0.4570 c3        1 MOL     -0.257484
     55 C18         6.9800   -1.9520    0.2910 c         1 MOL      0.582121
     56 O9          7.7040   -1.4850    1.1640 o         1 MOL     -0.548572
     57 H25         4.3880   -3.4170   -0.3160 hn        1 MOL      0.070538
     58 H26         7.1070   -4.1140    0.3220 h1        1 MOL      0.130607
     59 H27         5.8990   -3.4360    1.4570 h1        1 MOL      0.130607
     60 N6          6.6270   -1.1860   -0.8020 n         1 MOL     -0.193022
     61 C19         7.3490    0.0980   -1.0260 c3        1 MOL     -0.050235
     62 C20         6.4200    1.3070   -0.6410 c         1 MOL      0.540345
     63 O10         5.2180    1.1190   -0.4230 o         1 MOL     -0.494483
     64 C21         7.7380    0.0170   -2.4790 c3        1 MOL     -0.459957
     65 C22         8.0890    1.3700   -3.0860 c         1 MOL      0.712709
     66 N7          7.2740    1.9840   -3.9540 n         1 MOL     -0.801295
     67 O11         9.1920    1.8480   -2.8250 o         1 MOL     -0.569878
     68 H28         5.9850   -1.5490   -1.4870 hn        1 MOL      0.175793
     69 H29         8.2440    0.0950   -0.4080 h1        1 MOL      0.113942
     70 H30         6.9330   -0.4510   -3.0410 hc        1 MOL      0.173972
     71 H31         8.5490   -0.7150   -2.5400 hc        1 MOL      0.173972
     72 H32         6.4490    1.5960   -4.4000 hn        1 MOL      0.356691
     73 H33         7.5770    2.9090   -4.2330 hn        1 MOL      0.356691
     74 N8          7.0790    2.4500   -0.4690 n         1 MOL     -0.452096
     75 C23         6.5240    3.7720   -0.1140 c3        1 MOL      0.137670
     76 C24         5.3560    3.8370    0.8250 c         1 MOL      0.587048
     77 O12         5.5200    3.5270    2.0020 o         1 MOL     -0.519501
     78 H34         8.0800    2.3380   -0.3950 hn        1 MOL      0.318443
     79 H35         6.2370    4.3720   -0.9750 h1        1 MOL      0.011697
     80 H36         7.2610    4.3940    0.3830 h1        1 MOL      0.011697
     81 N9          4.1350    4.1970    0.3900 n         1 MOL     -0.716701
     82 C25         2.9240    4.2980    1.1880 c3        1 MOL      0.451301
     83 C26         2.4630    2.9160    1.6420 c         1 MOL      0.384143
     84 O13         2.9440    1.8730    1.1920 o         1 MOL     -0.375570
     85 C27         1.7750    5.2020    0.5730 c3        1 MOL     -0.104085
     86 C28         2.1240    6.6990    0.4150 ca        1 MOL     -0.003531
     87 C29         2.0850    7.2180   -0.8780 ca        1 MOL     -0.130388
     88 C30         2.4470    7.5300    1.5140 ca        1 MOL     -0.130388
     89 C31         2.4690    8.5370   -1.1280 ca        1 MOL     -0.261844
     90 C32         2.9440    8.8350    1.2520 ca        1 MOL     -0.261844
     91 C33         2.8740    9.3790   -0.0760 ca        1 MOL      0.329213
     92 O14         3.3170   10.6220   -0.3620 oh        1 MOL     -0.445261
     93 H37         4.1370    4.4370   -0.5910 hn        1 MOL      0.312724
     94 H38         3.1350    4.8320    2.1150 h1        1 MOL      0.026477
     95 H39         0.8790    5.2360    1.1910 hc        1 MOL      0.021117
     96 H40         1.5110    4.8380   -0.4120 hc        1 MOL      0.021117
     97 H41         1.6450    6.6870   -1.7040 ha        1 MOL      0.121857
     98 H42         2.4170    7.1320    2.5230 ha        1 MOL      0.121857
     99 H43         2.4730    8.8620   -2.1610 ha        1 MOL      0.161151
    100 H44         3.2830    9.4660    2.0590 ha        1 MOL      0.161151
    101 H45         3.3770   10.7930   -1.3090 ho        1 MOL      0.349913
    102 N10         1.4950    2.9410    2.5520 n         1 MOL     -0.663708
    103 C34         0.7600    1.7190    3.0490 c3        1 MOL     -0.018967
    104 C35         0.1480    0.8800    1.9100 c         1 MOL      0.596599
    105 O15         0.8120    0.3020    1.0470 o         1 MOL     -0.549654
    106 C36         1.6600    0.8820    3.9870 c3        1 MOL      0.352094
    107 C37         0.8280   -0.1880    4.7700 c3        1 MOL     -0.160638
    108 C38         2.6150    1.7790    4.9150 c3        1 MOL     -0.121269
    109 C39        -0.0490    0.3800    5.9300 c3        1 MOL     -0.202461
    110 H46         1.0720    3.8250    2.8010 hn        1 MOL      0.334080
    111 H47        -0.0630    2.1440    3.6240 h1        1 MOL      0.113335
    112 H48         2.3650    0.2800    3.4050 hc        1 MOL     -0.038782
    113 H49         1.4870   -0.8700    5.2980 hc        1 MOL      0.052267
    114 H50         0.1210   -0.7700    4.1690 hc        1 MOL      0.052267
    115 H51         1.9620    2.3830    5.5460 hc        1 MOL      0.037322
    116 H52         3.2160    1.0940    5.5190 hc        1 MOL      0.037322
    117 H53         3.3160    2.3790    4.3400 hc        1 MOL      0.037322
    118 H54        -0.7590    1.0820    5.4910 hc        1 MOL      0.046255
    119 H55        -0.5760   -0.3800    6.5270 hc        1 MOL      0.046255
    120 H56         0.6160    0.9210    6.6130 hc        1 MOL      0.046255
    121 N11        -1.1530    0.6780    1.8780 n         1 MOL     -0.348811
    122 C40        -1.8410   -0.1700    0.8980 c3        1 MOL     -0.148909
    123 C41        -3.3270    0.2970    0.5710 c         1 MOL      0.552047
    124 O16        -4.0380    0.8380    1.4340 o         1 MOL     -0.493177
    125 C42        -1.8410   -1.6360    1.3250 c3        1 MOL      0.233086
    126 O17        -2.7170   -2.4480    0.5070 oh        1 MOL     -0.616197
    127 H57        -1.7390    1.2560    2.4610 hn        1 MOL      0.219940
    128 H58        -1.3560   -0.0360   -0.0750 h1        1 MOL      0.101233
    129 H59        -2.0780   -1.7800    2.3740 h1        1 MOL      0.095132
    130 H60        -0.8310   -1.9920    1.1380 h1        1 MOL      0.095132
    131 H61        -2.5430   -2.1670   -0.3970 ho        1 MOL      0.348494
    132 N12        -3.8640    0.0540   -0.6590 n         1 MOL     -0.533110
    133 C43        -5.1870    0.4170   -1.1520 c3        1 MOL      0.090448
    134 C44        -5.4080   -0.1220   -2.5600 c         1 MOL      0.688469
    135 O18        -4.4370   -0.6880   -3.0760 o         1 MOL     -0.590183
    136 C45        -5.4590    1.9390   -1.1100 c3        1 MOL      0.100979
    137 H62        -3.2710   -0.3760   -1.3490 hn        1 MOL      0.232099
    138 H63        -5.8840   -0.0680   -0.4600 h1        1 MOL      0.071779
    139 H64        -5.4360    2.4030   -0.1310 hc        1 MOL     -0.012952
    140 H65        -4.6710    2.4270   -1.6930 hc        1 MOL     -0.012952
    141 H66        -6.3630    2.2200   -1.6390 hc        1 MOL     -0.012952
    142 N13        -6.6080   -0.1840   -3.1110 n         1 MOL     -0.769434
    143 C46        -7.9480    0.0110   -2.4440 c3        1 MOL      0.477224
    144 C47        -8.7210    1.2850   -2.9340 c         1 MOL      0.526921
    145 O19        -8.4090    1.7410   -4.0280 o         1 MOL     -0.543999
    146 C48        -8.7310   -1.2650   -2.8170 c3        1 MOL     -0.487099
    147 H67        -6.6260   -0.5420   -4.0540 hn        1 MOL      0.383813
    148 H68        -7.7190   -0.0540   -1.3780 h1        1 MOL     -0.033848
    149 H69        -8.3340   -2.1370   -2.3070 hc        1 MOL      0.136045
    150 H70        -9.7530   -1.2900   -2.4580 hc        1 MOL      0.136045
    151 H71        -8.7400   -1.4720   -3.8880 hc        1 MOL      0.136045
    152 N14        -9.7460    1.7620   -2.2400 n         1 MOL     -0.576939
    153 C49       -10.1510    1.3270   -0.8500 c3        1 MOL     -0.162587
    154 C50        -9.6430    2.1690    0.2710 c         1 MOL      0.520015
    155 O20        -9.2160    1.6780    1.2560 o         1 MOL     -0.538856
    156 C51       -11.6870    1.1950   -0.7880 c3        1 MOL      0.292906
    157 C52       -12.2440    0.4140    0.4320 c3        1 MOL     -0.397600
    158 C53       -13.7040    0.0560    0.5030 c         1 MOL      0.733884
    159 O21       -14.3260    0.2350    1.5920 o         1 MOL     -0.668303
    160 O22       -14.4030   -0.3580   -0.4760 o         1 MOL     -0.668303
    161 H72       -10.2530    2.5210   -2.6690 hn        1 MOL      0.341228
    162 H73        -9.8120    0.3070   -0.6730 h1        1 MOL      0.110571
    163 H74       -11.9690    0.6510   -1.6890 hc        1 MOL     -0.036151
    164 H75       -12.1910    2.1600   -0.8640 hc        1 MOL     -0.036151
    165 H76       -12.0210    1.0000    1.3250 hc        1 MOL      0.082464
    166 H77       -11.5870   -0.4630    0.4410 hc        1 MOL      0.082464
    167 N15        -9.4620    3.4050    0.0360 n         1 MOL     -0.266119
    168 C54        -8.7240    4.3920    0.8590 c3        1 MOL     -0.180788
    169 H78        -8.4840    3.9500    1.8260 h1        1 MOL      0.102936
    170 H79        -7.8030    4.6750    0.3490 h1        1 MOL      0.102936
    171 H80        -9.3430    5.2770    1.0080 h1        1 MOL      0.102936
    172 H81       -10.0760    3.8090   -0.6550 hn        1 MOL      0.240470
    173 Ca1         2.6910    0.1900   -0.7120 Ca        1 MOL      1.694065
    174 O23         3.4030    1.6220   -2.7480 oh        1 MOL     -0.840968
    175 H82         3.6410    2.5260   -2.9480 ho        1 MOL      0.410132
    176 H83         3.6490    1.1350   -3.5360 ho        1 MOL      0.410132
    177 O24         0.5570   -0.4900   -2.0530 oh        1 MOL     -0.840968
    178 H84        -0.1200   -1.1500   -1.9470 ho        1 MOL      0.410132
    179 H85         0.6270   -0.3790   -3.0060 ho        1 MOL      0.410132
    180 O25         1.2060    2.3850   -1.2910 oh        1 MOL     -0.840968
    181 H86         1.3600    2.5810   -2.2160 ho        1 MOL      0.410132
    182 H87         0.4150    2.8770   -1.0610 ho        1 MOL      0.410132
@<TRIPOS>BOND
     1    1    2 1   
     2    1    4 1   
     3    1    5 1   
     4    1    6 1   
     5    2    3 2   
     6    2    7 1   
     7    7    8 1   
     8    7   15 1   
     9    8    9 1   
    10    8   11 1   
    11    8   16 1   
    12    9   10 2   
    13    9   19 1   
    14   11   12 1   
    15   11   17 1   
    16   11   18 1   
    17   12   13 1   
    18   12   14 1   
    19   19   20 1   
    20   19   28 1   
    21   20   21 1   
    22   20   23 1   
    23   20   29 1   
    24   21   22 2   
    25   21   41 1   
    26   23   24 1   
    27   23   30 1   
    28   23   31 1   
    29   24   25 1   
    30   24   32 1   
    31   24   33 1   
    32   25   26 1   
    33   25   34 1   
    34   25   35 1   
    35   26   27 1   
    36   26   36 1   
    37   26   37 1   
    38   27   38 1   
    39   27   39 1   
    40   27   40 1   
    41   41   42 1   
    42   41   49 1   
    43   42   43 1   
    44   42   45 1   
    45   42   50 1   
    46   43   44 2   
    47   43   53 1   
    48   45   46 1   
    49   45   51 1   
    50   45   52 1   
    51   46   47 1   
    52   46   48 1   
    53   53   54 1   
    54   53   57 1   
    55   54   55 1   
    56   54   58 1   
    57   54   59 1   
    58   55   56 2   
    59   55   60 1   
    60   60   61 1   
    61   60   68 1   
    62   61   62 1   
    63   61   64 1   
    64   61   69 1   
    65   62   63 2   
    66   62   74 1   
    67   64   65 1   
    68   64   70 1   
    69   64   71 1   
    70   65   66 1   
    71   65   67 2   
    72   66   72 1   
    73   66   73 1   
    74   74   75 1   
    75   74   78 1   
    76   75   76 1   
    77   75   79 1   
    78   75   80 1   
    79   76   77 2   
    80   76   81 1   
    81   81   82 1   
    82   81   93 1   
    83   82   83 1   
    84   82   85 1   
    85   82   94 1   
    86   83   84 2   
    87   83  102 1   
    88   85   86 1   
    89   85   95 1   
    90   85   96 1   
    91   86   87 ar  
    92   86   88 ar  
    93   87   89 ar  
    94   87   97 1   
    95   88   90 ar  
    96   88   98 1   
    97   89   91 ar  
    98   89   99 1   
    99   90   91 ar  
   100   90  100 1   
   101   91   92 1   
   102   92  101 1   
   103  102  103 1   
   104  102  110 1   
   105  103  104 1   
   106  103  106 1   
   107  103  111 1   
   108  104  105 2   
   109  104  121 1   
   110  106  107 1   
   111  106  108 1   
   112  106  112 1   
   113  107  109 1   
   114  107  113 1   
   115  107  114 1   
   116  108  115 1   
   117  108  116 1   
   118  108  117 1   
   119  109  118 1   
   120  109  119 1   
   121  109  120 1   
   122  121  122 1   
   123  121  127 1   
   124  122  123 1   
   125  122  125 1   
   126  122  128 1   
   127  123  124 2   
   128  123  132 1   
   129  125  126 1   
   130  125  129 1   
   131  125  130 1   
   132  126  131 1   
   133  132  133 1   
   134  132  137 1   
   135  133  134 1   
   136  133  136 1   
   137  133  138 1   
   138  134  135 2   
   139  134  142 1   
   140  136  139 1   
   141  136  140 1   
   142  136  141 1   
   143  142  143 1   
   144  142  147 1   
   145  143  144 1   
   146  143  146 1   
   147  143  148 1   
   148  144  145 2   
   149  144  152 1   
   150  146  149 1   
   151  146  150 1   
   152  146  151 1   
   153  152  153 1   
   154  152  161 1   
   155  153  154 1   
   156  153  156 1   
   157  153  162 1   
   158  154  155 2   
   159  154  167 1   
   160  156  157 1   
   161  156  163 1   
   162  156  164 1   
   163  157  158 1   
   164  157  165 1   
   165  157  166 1   
   166  158  159 1   
   167  158  160 1   
   168  167  168 1   
   169  167  172 1   
   170  168  169 1   
   171  168  170 1   
   172  168  171 1   
   173  174  175 1   
   174  174  176 1   
   175  177  178 1   
   176  177  179 1   
   177  180  181 1   
   178  180  182 1   
@<TRIPOS>SUBSTRUCTURE
     1 MOL         1 TEMP              0 ****  ****    0 ROOT
