@<TRIPOS>MOLECULE
MOL
  189   185     1     0     0
SMALL
resp


@<TRIPOS>ATOM
      1 C1          4.1890    6.3870   -3.4080 c3        1 MOL     -0.362387
      2 C2          4.1430    4.9500   -2.8290 c         1 MOL      0.710878
      3 O1          3.8220    3.9990   -3.5070 o         1 MOL     -0.580647
      4 H1          4.8230    6.4000   -4.2950 hc        1 MOL      0.098286
      5 H2          3.1810    6.7030   -3.6780 hc        1 MOL      0.098286
      6 H3          4.5960    7.0680   -2.6610 hc        1 MOL      0.098286
      7 N1          4.2320    4.7340   -1.5180 n         1 MOL     -0.542720
      8 C3          4.2620    3.4610   -0.8650 c3        1 MOL      0.023411
      9 C4          2.9030    3.0010   -0.3040 c         1 MOL      0.524733
     10 O2          2.8090    2.1280    0.5700 o         1 MOL     -0.567399
     11 C5          5.3320    3.4740    0.2620 c3        1 MOL     -0.098791
     12 C6          5.0840    4.5160    1.3300 c         1 MOL      0.622725
     13 O3          4.9830    4.1040    2.5380 o         1 MOL     -0.663363
     14 O4          5.1360    5.7210    1.0690 o         1 MOL     -0.663363
     15 H4          4.3820    5.5690   -0.9770 hn        1 MOL      0.281437
     16 H5          4.6150    2.7750   -1.6340 h1        1 MOL      0.102266
     17 H6          6.3230    3.5850   -0.1850 hc        1 MOL      0.041308
     18 H7          5.3100    2.4900    0.7260 hc        1 MOL      0.041308
     19 N2          1.8160    3.5460   -0.7690 n         1 MOL     -0.313060
     20 C7          0.4380    3.2300   -0.3690 c3        1 MOL      0.032304
     21 C8         -0.4740    2.8450   -1.5920 c         1 MOL      0.574105
     22 O5         -0.3040    3.5010   -2.6480 o         1 MOL     -0.532254
     23 C9         -0.1440    4.4970    0.3430 c3        1 MOL     -0.009853
     24 C10         0.6250    5.0770    1.6070 c3        1 MOL     -0.275159
     25 C11         0.6370    3.9430    2.6240 c3        1 MOL      0.035106
     26 C12         1.1730    4.5180    3.9500 c3        1 MOL      0.061350
     27 N3          2.5970    4.8120    3.9100 n4        1 MOL     -0.371794
     28 H8          1.9960    4.3030   -1.4070 hn        1 MOL      0.236728
     29 H9          0.2700    2.4340    0.3470 h1        1 MOL      0.064961
     30 H10        -1.1870    4.3140    0.6100 hc        1 MOL      0.040918
     31 H11        -0.3210    5.2650   -0.4000 hc        1 MOL      0.040918
     32 H12         0.1040    5.9730    1.9470 hc        1 MOL      0.098410
     33 H13         1.6630    5.3230    1.3920 hc        1 MOL      0.098410
     34 H14         1.1710    3.0380    2.3400 hc        1 MOL      0.045098
     35 H15        -0.3650    3.6220    2.8930 hc        1 MOL      0.045098
     36 H16         0.8580    3.8010    4.6990 hx        1 MOL      0.066928
     37 H17         0.6050    5.3860    4.2670 hx        1 MOL      0.066928
     38 H18         3.2170    4.0740    3.6190 hn        1 MOL      0.296073
     39 H19         2.8080    5.5780    3.2840 hn        1 MOL      0.296073
     40 H20         2.9290    5.2060    4.7800 hn        1 MOL      0.296073
     41 N4         -1.4090    1.8640   -1.4520 n         1 MOL     -0.493283
     42 C13        -1.7920    1.0200   -0.3440 c3        1 MOL      0.042607
     43 C14        -2.2710    1.6040    1.0160 c         1 MOL      0.307213
     44 O6         -1.7720    1.2330    2.0610 o         1 MOL     -0.527218
     45 C15        -0.7920   -0.2250   -0.2110 c3        1 MOL      0.323393
     46 C16        -0.4210   -0.8170   -1.6000 c         1 MOL      0.716104
     47 O7          0.8210   -0.8000   -1.8450 o         1 MOL     -0.785205
     48 O8         -1.2050   -1.5170   -2.2350 o         1 MOL     -0.785205
     49 H21        -1.8910    1.5910   -2.2940 hn        1 MOL      0.276965
     50 H22        -2.7090    0.5550   -0.7250 h1        1 MOL      0.083791
     51 H23        -1.2890   -0.9740    0.4030 hc        1 MOL     -0.077523
     52 H24         0.0900    0.1420    0.3250 hc        1 MOL     -0.077523
     53 N5         -3.1910    2.5900    1.0430 n         1 MOL     -0.141147
     54 C17        -4.0370    3.0870   -0.0440 c3        1 MOL     -0.024735
     55 C18        -4.8420    4.2660    0.4970 c         1 MOL      0.488068
     56 O9         -4.6930    4.7360    1.5940 o         1 MOL     -0.531890
     57 H25        -3.2300    2.9830    1.9700 hn        1 MOL      0.212950
     58 H26        -4.6550    2.2510   -0.3770 h1        1 MOL      0.015454
     59 H27        -3.3830    3.4700   -0.8220 h1        1 MOL      0.015454
     60 N6         -5.7500    4.7790   -0.2780 n         1 MOL     -0.341013
     61 C19        -6.3860    4.1090   -1.4150 c3        1 MOL     -0.025818
     62 C20        -7.0810    2.7350   -0.9760 c         1 MOL      0.525674
     63 O10        -7.3880    2.4700    0.2410 o         1 MOL     -0.459408
     64 C21        -7.4320    5.0430   -2.0300 c3        1 MOL     -0.095680
     65 C22        -8.5290    5.4410   -1.0690 c         1 MOL      0.677738
     66 O11        -9.6940    4.9510   -1.1710 o         1 MOL     -0.659215
     67 O12        -8.2180    6.2970   -0.1880 o         1 MOL     -0.659215
     68 H28        -6.1330    5.6630    0.0260 hn        1 MOL      0.266561
     69 H29        -5.6060    3.9100   -2.1460 h1        1 MOL      0.014507
     70 H30        -7.9160    4.6240   -2.9020 hc        1 MOL      0.007190
     71 H31        -6.9450    5.9610   -2.3680 hc        1 MOL      0.007190
     72 N7         -7.3680    1.9070   -1.9710 n         1 MOL     -0.343349
     73 C23        -8.2230    0.7150   -1.8970 c3        1 MOL     -0.232205
     74 C24        -7.5450   -0.6220   -1.5630 c         1 MOL      0.480281
     75 O13        -8.3030   -1.5700   -1.2440 o         1 MOL     -0.550132
     76 H32        -6.9280    2.0630   -2.8670 hn        1 MOL      0.262528
     77 H33        -8.7270    0.4840   -2.8280 h1        1 MOL      0.159772
     78 H34        -8.9500    0.8770   -1.0980 h1        1 MOL      0.159772
     79 N8         -6.2380   -0.7000   -1.4670 n         1 MOL     -0.248169
     80 C25        -5.4710   -1.7910   -1.0280 c3        1 MOL      0.017635
     81 C26        -4.9620   -1.6850    0.4310 c         1 MOL      0.453746
     82 O14        -4.4410   -0.6320    0.7870 o         1 MOL     -0.487718
     83 C27        -4.2790   -1.9500   -1.8830 c3        1 MOL      0.218360
     84 C28        -4.4380   -2.1300   -3.4080 c3        1 MOL     -0.330840
     85 O15        -3.4160   -2.9610   -1.4840 oh        1 MOL     -0.479945
     86 H35        -5.7160    0.0810   -1.8360 hn        1 MOL      0.184944
     87 H36        -6.0210   -2.7310   -1.1050 h1        1 MOL      0.069082
     88 H37        -3.7960   -0.9700   -1.8400 h1        1 MOL      0.061585
     89 H38        -2.5640   -2.7240   -1.8530 ho        1 MOL      0.297861
     90 H39        -3.4900   -2.1460   -3.9390 hc        1 MOL      0.078117
     91 H40        -4.8830   -3.1240   -3.5410 hc        1 MOL      0.078117
     92 H41        -5.0640   -1.3370   -3.8150 hc        1 MOL      0.078117
     93 N9         -4.9610   -2.8070    1.1730 n         1 MOL     -0.308398
     94 C29        -4.2590   -3.0300    2.4350 c3        1 MOL     -0.058219
     95 C30        -2.9420   -3.8530    2.2940 c         1 MOL      0.333710
     96 O16        -2.2190   -4.0260    3.2700 o         1 MOL     -0.504587
     97 C31        -5.2840   -3.5730    3.4730 c3        1 MOL      0.163268
     98 C32        -6.0930   -4.7980    2.9050 c3        1 MOL      0.168124
     99 C33        -6.2220   -2.4480    3.8660 c3        1 MOL     -0.513617
    100 C34        -6.7080   -5.5360    4.0640 c3        1 MOL     -0.147084
    101 H42        -5.4460   -3.5900    0.7590 hn        1 MOL      0.212073
    102 H43        -4.0260   -2.0380    2.8210 h1        1 MOL      0.136868
    103 H44        -4.6970   -3.9950    4.2900 hc        1 MOL      0.000940
    104 H45        -5.4650   -5.5260    2.3900 hc        1 MOL     -0.039453
    105 H46        -6.8660   -4.4550    2.2230 hc        1 MOL     -0.039453
    106 H47        -6.7610   -2.0860    2.9960 hc        1 MOL      0.147281
    107 H48        -6.9280   -2.8880    4.5670 hc        1 MOL      0.147281
    108 H49        -5.6270   -1.6540    4.3180 hc        1 MOL      0.147281
    109 H50        -7.1570   -6.4790    3.7590 hc        1 MOL      0.031155
    110 H51        -5.9930   -5.8610    4.8170 hc        1 MOL      0.031155
    111 H52        -7.5170   -4.9690    4.5270 hc        1 MOL      0.031155
    112 N10        -2.5470   -4.1320    1.0300 n         1 MOL     -0.096499
    113 C35        -1.3460   -4.9190    0.6690 c3        1 MOL     -0.151266
    114 C36        -0.1510   -4.0290    0.4450 c         1 MOL      0.933072
    115 O17         0.2330   -3.6520   -0.6350 o         1 MOL     -0.952925
    116 C37        -1.7990   -5.7980   -0.6210 c3        1 MOL      0.314974
    117 C38        -2.9050   -6.8340   -0.1840 c3        1 MOL     -0.333578
    118 O18        -0.7380   -6.5920   -1.0590 oh        1 MOL     -0.547423
    119 H53        -3.1460   -3.8570    0.2720 hn        1 MOL      0.135051
    120 H54        -0.9790   -5.6130    1.4310 h1        1 MOL      0.097747
    121 H55        -2.1600   -5.2180   -1.4710 h1        1 MOL      0.007955
    122 H56        -0.2100   -6.0710   -1.6670 ho        1 MOL      0.317262
    123 H57        -3.3220   -7.5160   -0.9250 hc        1 MOL      0.096374
    124 H58        -2.5050   -7.4700    0.6030 hc        1 MOL      0.096374
    125 H59        -3.7300   -6.1830    0.1180 hc        1 MOL      0.096374
    126 N11         0.2690   -3.5150    1.5350 n         1 MOL     -0.611424
    127 C39         1.3010   -2.4460    1.6470 c3        1 MOL      0.273505
    128 C40         2.7260   -2.9680    1.9450 c         1 MOL      0.647731
    129 O19         2.8700   -4.1290    2.4100 o         1 MOL     -0.529261
    130 C41         0.8090   -1.5290    2.8030 c3        1 MOL      0.119892
    131 C42         1.7280   -0.3440    3.1450 c3        1 MOL     -0.389598
    132 O20         0.7630   -2.2990    4.0080 oh        1 MOL     -0.606072
    133 H60        -0.1930   -3.8800    2.3640 hn        1 MOL      0.309273
    134 H61         1.3570   -1.9630    0.6710 h1        1 MOL     -0.030748
    135 H62        -0.1730   -1.1270    2.5570 h1        1 MOL      0.111375
    136 H63         0.2460   -1.8110    4.6590 ho        1 MOL      0.420527
    137 H64         1.2720    0.2390    3.9540 hc        1 MOL      0.097072
    138 H65         2.6850   -0.7870    3.4340 hc        1 MOL      0.097072
    139 H66         1.9730    0.2050    2.2460 hc        1 MOL      0.097072
    140 N12         3.7730   -2.2200    1.5230 n         1 MOL     -0.526359
    141 C43         5.2500   -2.3680    1.6870 c3        1 MOL      0.083365
    142 C44         6.1840   -2.1150    0.4860 c         1 MOL      0.593370
    143 O21         7.3920   -2.3310    0.5680 o         1 MOL     -0.573575
    144 C45         5.7370   -1.5690    2.8920 c3        1 MOL     -0.169839
    145 C46         6.0850   -0.1250    2.6950 c3        1 MOL     -0.024716
    146 C47         6.3530    0.4560    4.1180 c3        1 MOL      0.145331
    147 C48         6.9950    1.8170    4.0560 c3        1 MOL      0.112471
    148 N13         6.9280    2.3600    5.4000 n4        1 MOL     -0.404915
    149 H67         3.4580   -1.3520    1.1200 hn        1 MOL      0.297298
    150 H68         5.3880   -3.3980    2.0150 h1        1 MOL      0.127489
    151 H69         6.6180   -2.1310    3.2110 hc        1 MOL      0.054897
    152 H70         4.9590   -1.6800    3.6450 hc        1 MOL      0.054897
    153 H71         5.2290    0.4070    2.2850 hc        1 MOL      0.004952
    154 H72         6.9330   -0.0930    2.0130 hc        1 MOL      0.004952
    155 H73         6.9730   -0.2080    4.7170 hc        1 MOL     -0.024550
    156 H74         5.3940    0.4710    4.6300 hc        1 MOL     -0.024550
    157 H75         6.4060    2.4110    3.3580 hx        1 MOL      0.047798
    158 H76         7.9850    1.6350    3.6570 hx        1 MOL      0.047798
    159 H77         6.1230    2.9520    5.5570 hn        1 MOL      0.303029
    160 H78         7.0330    1.6750    6.1260 hn        1 MOL      0.303029
    161 H79         7.7300    2.9680    5.4220 hn        1 MOL      0.303029
    162 N14         5.6460   -1.6510   -0.6860 n         1 MOL     -0.303010
    163 C49         6.5080   -1.5670   -1.9160 c3        1 MOL     -0.057352
    164 C50         7.3010   -0.1780   -2.0750 c         1 MOL      0.354588
    165 O22         6.5950    0.8630   -2.0260 o         1 MOL     -0.473617
    166 C51         5.6730   -1.9130   -3.1810 c3        1 MOL     -0.087308
    167 C52         5.4600   -3.4540   -3.2690 c3        1 MOL     -0.017255
    168 C53         4.3990   -3.9980   -2.3880 c         1 MOL      0.412167
    169 O23         4.7120   -4.8350   -1.5050 o         1 MOL     -0.598693
    170 O24         3.2520   -3.4810   -2.4140 o         1 MOL     -0.598693
    171 H80         4.6700   -1.4150   -0.7050 hn        1 MOL      0.249616
    172 H81         7.2630   -2.3520   -1.9000 h1        1 MOL      0.146367
    173 H82         6.2010   -1.5200   -4.0340 hc        1 MOL      0.029190
    174 H83         4.7340   -1.3660   -3.2080 hc        1 MOL      0.029190
    175 H84         6.3980   -3.8930   -2.9010 hc        1 MOL     -0.006612
    176 H85         5.2330   -3.6200   -4.3160 hc        1 MOL     -0.006612
    177 N15         8.5870   -0.2380   -2.2330 n         1 MOL     -0.239699
    178 C54         9.5020    0.9390   -2.3680 c3        1 MOL     -0.054796
    179 H86        10.1350    1.0100   -1.4840 h1        1 MOL      0.072083
    180 H87        10.1270    0.8140   -3.2530 h1        1 MOL      0.072083
    181 H88         8.9110    1.8490   -2.4660 h1        1 MOL      0.072083
    182 H89         8.9220   -1.1810   -2.0790 hn        1 MOL      0.229000
    183 Ca1         0.8940   -3.0200   -3.1500 Ca        1 MOL      1.824981
    184 O25         2.3950   -1.3310   -4.5800 oh        1 MOL     -0.938627
    185 H90         3.2220   -1.5860   -5.0030 ho        1 MOL      0.463253
    186 H91         2.4510   -0.3730   -4.5050 ho        1 MOL      0.463253
    187 O26         2.3360   -4.1160   -5.2440 oh        1 MOL     -0.938627
    188 H92         3.1170   -3.8030   -5.6930 ho        1 MOL      0.463253
    189 H93         2.3440   -5.0650   -5.3580 ho        1 MOL      0.463253
@<TRIPOS>BOND
     1    1    2 1   
     2    1    4 1   
     3    1    5 1   
     4    1    6 1   
     5    2    3 2   
     6    2    7 1   
     7    7    8 1   
     8    7   15 1   
     9    8    9 1   
    10    8   11 1   
    11    8   16 1   
    12    9   10 2   
    13    9   19 1   
    14   11   12 1   
    15   11   17 1   
    16   11   18 1   
    17   12   13 1   
    18   12   14 1   
    19   19   20 1   
    20   19   28 1   
    21   20   21 1   
    22   20   23 1   
    23   20   29 1   
    24   21   22 2   
    25   21   41 1   
    26   23   24 1   
    27   23   30 1   
    28   23   31 1   
    29   24   25 1   
    30   24   32 1   
    31   24   33 1   
    32   25   26 1   
    33   25   34 1   
    34   25   35 1   
    35   26   27 1   
    36   26   36 1   
    37   26   37 1   
    38   27   38 1   
    39   27   39 1   
    40   27   40 1   
    41   41   42 1   
    42   41   49 1   
    43   42   43 1   
    44   42   45 1   
    45   42   50 1   
    46   43   44 2   
    47   43   53 1   
    48   45   46 1   
    49   45   51 1   
    50   45   52 1   
    51   46   47 1   
    52   46   48 1   
    53   53   54 1   
    54   53   57 1   
    55   54   55 1   
    56   54   58 1   
    57   54   59 1   
    58   55   56 2   
    59   55   60 1   
    60   60   61 1   
    61   60   68 1   
    62   61   62 1   
    63   61   64 1   
    64   61   69 1   
    65   62   63 2   
    66   62   72 1   
    67   64   65 1   
    68   64   70 1   
    69   64   71 1   
    70   65   66 1   
    71   65   67 1   
    72   72   73 1   
    73   72   76 1   
    74   73   74 1   
    75   73   77 1   
    76   73   78 1   
    77   74   75 2   
    78   74   79 1   
    79   79   80 1   
    80   79   86 1   
    81   80   81 1   
    82   80   83 1   
    83   80   87 1   
    84   81   82 2   
    85   81   93 1   
    86   83   84 1   
    87   83   85 1   
    88   83   88 1   
    89   84   90 1   
    90   84   91 1   
    91   84   92 1   
    92   85   89 1   
    93   93   94 1   
    94   93  101 1   
    95   94   95 1   
    96   94   97 1   
    97   94  102 1   
    98   95   96 2   
    99   95  112 1   
   100   97   98 1   
   101   97   99 1   
   102   97  103 1   
   103   98  100 1   
   104   98  104 1   
   105   98  105 1   
   106   99  106 1   
   107   99  107 1   
   108   99  108 1   
   109  100  109 1   
   110  100  110 1   
   111  100  111 1   
   112  112  113 1   
   113  112  119 1   
   114  113  114 1   
   115  113  116 1   
   116  113  120 1   
   117  114  115 2   
   118  114  126 1   
   119  116  117 1   
   120  116  118 1   
   121  116  121 1   
   122  117  123 1   
   123  117  124 1   
   124  117  125 1   
   125  118  122 1   
   126  126  127 1   
   127  126  133 1   
   128  127  128 1   
   129  127  130 1   
   130  127  134 1   
   131  128  129 2   
   132  128  140 1   
   133  130  131 1   
   134  130  132 1   
   135  130  135 1   
   136  131  137 1   
   137  131  138 1   
   138  131  139 1   
   139  132  136 1   
   140  140  141 1   
   141  140  149 1   
   142  141  142 1   
   143  141  144 1   
   144  141  150 1   
   145  142  143 2   
   146  142  162 1   
   147  144  145 1   
   148  144  151 1   
   149  144  152 1   
   150  145  146 1   
   151  145  153 1   
   152  145  154 1   
   153  146  147 1   
   154  146  155 1   
   155  146  156 1   
   156  147  148 1   
   157  147  157 1   
   158  147  158 1   
   159  148  159 1   
   160  148  160 1   
   161  148  161 1   
   162  162  163 1   
   163  162  171 1   
   164  163  164 1   
   165  163  166 1   
   166  163  172 1   
   167  164  165 2   
   168  164  177 1   
   169  166  167 1   
   170  166  173 1   
   171  166  174 1   
   172  167  168 1   
   173  167  175 1   
   174  167  176 1   
   175  168  169 1   
   176  168  170 1   
   177  177  178 1   
   178  177  182 1   
   179  178  179 1   
   180  178  180 1   
   181  178  181 1   
   182  184  185 1   
   183  184  186 1   
   184  187  188 1   
   185  187  189 1   
@<TRIPOS>SUBSTRUCTURE
     1 MOL         1 TEMP              0 ****  ****    0 ROOT
