@<TRIPOS>MOLECULE
MOL
  188   182     1     0     0
SMALL
resp


@<TRIPOS>ATOM
      1 C1         -6.4860    2.4540   -2.4500 c3        1 MOL     -0.380081
      2 C2         -7.2400    2.1920   -1.1900 c         1 MOL      0.520347
      3 O1         -6.5560    1.9060   -0.1910 o         1 MOL     -0.488794
      4 H1         -5.5470    2.9530   -2.2130 hc        1 MOL      0.096442
      5 H2         -6.2780    1.5100   -2.9530 hc        1 MOL      0.096442
      6 H3         -7.0810    3.0910   -3.1040 hc        1 MOL      0.096442
      7 N1         -8.5890    2.3830   -1.1630 n         1 MOL     -0.365586
      8 C3         -9.4350    2.1210    0.0130 c3        1 MOL      0.044352
      9 C4         -9.1270    0.8200    0.7680 c         1 MOL      0.391294
     10 O2         -9.1170    0.7560    2.0090 o         1 MOL     -0.444931
     11 C5         -9.4240    3.3010    1.0070 c3        1 MOL     -0.233172
     12 C6        -10.6440    3.4320    1.8240 c         1 MOL      0.757649
     13 O3        -10.5640    4.1040    2.8550 o         1 MOL     -0.673448
     14 O4        -11.7240    2.9970    1.3990 o         1 MOL     -0.673448
     15 H4         -9.0310    2.6260   -2.0450 hn        1 MOL      0.278139
     16 H5        -10.4160    1.9740   -0.4330 h1        1 MOL      0.035693
     17 H6         -9.3370    4.2560    0.4860 hc        1 MOL      0.080739
     18 H7         -8.5460    3.1580    1.6430 hc        1 MOL      0.080739
     19 N2         -8.9040   -0.2790   -0.0120 n         1 MOL     -0.257183
     20 C7         -8.6120   -1.6690    0.3120 c3        1 MOL      0.129404
     21 C8         -7.3200   -2.1720   -0.2400 c         1 MOL      0.595742
     22 O5         -7.1720   -3.2350   -0.7860 o         1 MOL     -0.594176
     23 C9         -9.9080   -2.4950    0.2790 c3        1 MOL     -0.149867
     24 C10       -10.4900   -2.6340   -1.1400 c3        1 MOL     -0.084423
     25 C11       -11.8150   -3.4010   -1.0520 c3        1 MOL     -0.000673
     26 C12       -12.3770   -3.2490   -2.4470 c3        1 MOL      0.142930
     27 N3        -13.7890   -3.6010   -2.5130 n4        1 MOL     -0.151418
     28 H8         -9.1350   -0.0090   -0.9590 hn        1 MOL      0.127073
     29 H9         -8.4650   -1.6510    1.3990 h1        1 MOL      0.059800
     30 H10       -10.5760   -1.8780    0.8820 hc        1 MOL      0.067834
     31 H11        -9.7170   -3.4350    0.7960 hc        1 MOL      0.067834
     32 H12        -9.7740   -3.1310   -1.8040 hc        1 MOL      0.058249
     33 H13       -10.6240   -1.6000   -1.4300 hc        1 MOL      0.058249
     34 H14       -12.5180   -2.9850   -0.3450 hc        1 MOL      0.029557
     35 H15       -11.6400   -4.4710   -0.8910 hc        1 MOL      0.029557
     36 H16       -11.8160   -3.8720   -3.1480 hx        1 MOL      0.019590
     37 H17       -12.2240   -2.2250   -2.7840 hx        1 MOL      0.019590
     38 H18       -14.0760   -4.3970   -1.9650 hn        1 MOL      0.218273
     39 H19       -14.3950   -2.8340   -2.2930 hn        1 MOL      0.218273
     40 H20       -13.9860   -3.9130   -3.4520 hn        1 MOL      0.218273
     41 N4         -6.3140   -1.3580   -0.2390 n         1 MOL     -0.522259
     42 C13        -4.9130   -1.7370   -0.5250 c3        1 MOL      0.210244
     43 C14        -4.3480   -2.6530    0.5430 c         1 MOL      0.590594
     44 O6         -4.5510   -2.4220    1.7360 o         1 MOL     -0.525979
     45 C15        -4.0480   -0.4690   -0.7830 c3        1 MOL     -0.354819
     46 C16        -2.6590   -0.8180   -1.0930 c         1 MOL      0.685561
     47 O7         -2.2490   -0.9550   -2.2480 o         1 MOL     -0.725815
     48 O8         -1.8300   -1.0520   -0.1990 o         1 MOL     -0.725815
     49 H21        -6.3910   -0.4040    0.0670 hn        1 MOL      0.250377
     50 H22        -4.9930   -2.3290   -1.4320 h1        1 MOL      0.013523
     51 H23        -4.0410    0.1780    0.0890 hc        1 MOL      0.140406
     52 H24        -4.4910    0.0100   -1.6650 hc        1 MOL      0.140406
     53 N5         -3.6020   -3.6480    0.1420 n         1 MOL     -0.370443
     54 C17        -2.9210   -4.5630    1.1280 c3        1 MOL     -0.327936
     55 C18        -2.1210   -3.9150    2.2680 c         1 MOL      0.598953
     56 O9         -1.8920   -4.5950    3.3020 o         1 MOL     -0.582591
     57 H25        -3.2540   -3.6820   -0.8090 hn        1 MOL      0.239509
     58 H26        -2.2460   -5.1270    0.4980 h1        1 MOL      0.163100
     59 H27        -3.6740   -5.1870    1.6090 h1        1 MOL      0.163100
     60 N6         -1.7020   -2.7050    2.1190 n         1 MOL     -0.142471
     61 C19        -0.8910   -1.9530    3.0450 c3        1 MOL     -0.114375
     62 C20        -1.0610   -0.4120    2.9420 c         1 MOL      0.279419
     63 O10        -0.1230    0.3460    3.2800 o         1 MOL     -0.359864
     64 C21         0.5550   -2.3900    3.1290 c3        1 MOL     -0.171270
     65 C22         1.4270   -2.0050    1.9420 c         1 MOL      0.440536
     66 N7          2.6420   -2.3750    1.8470 n         1 MOL     -0.569355
     67 O11         0.9800   -1.3130    1.0360 o         1 MOL     -0.441503
     68 H28        -1.8650   -2.2440    1.2350 hn        1 MOL      0.091645
     69 H29        -1.2560   -2.2050    4.0410 h1        1 MOL      0.150970
     70 H30         0.4880   -3.4820    3.1470 hc        1 MOL      0.103675
     71 H31         0.9540   -2.1030    4.1080 hc        1 MOL      0.103675
     72 H32         3.0550   -2.8570    2.6250 hn        1 MOL      0.312907
     73 H33         3.2320   -2.1100    1.0700 hn        1 MOL      0.312907
     74 N8         -2.2140    0.1110    2.5100 n         1 MOL     -0.104864
     75 C23        -2.5890    1.6210    2.6460 c3        1 MOL     -0.271856
     76 C24        -1.8780    2.4760    1.6540 c         1 MOL      0.521725
     77 O12        -2.0130    3.7200    1.7920 o         1 MOL     -0.541657
     78 H34        -2.9540   -0.5480    2.3380 hn        1 MOL      0.183395
     79 H35        -2.2920    2.0280    3.6210 h1        1 MOL      0.169157
     80 H36        -3.6510    1.8230    2.4880 h1        1 MOL      0.169157
     81 N9         -1.0800    1.9960    0.7290 n         1 MOL     -0.384090
     82 C25        -0.2260    2.9000   -0.0540 c3        1 MOL      0.101449
     83 C26         0.9580    2.1200   -0.5870 c         1 MOL      0.338324
     84 O13         0.8910    0.9000   -0.8180 o         1 MOL     -0.620931
     85 C27        -0.9810    3.3950   -1.2890 c3        1 MOL     -0.484538
     86 C28        -0.0660    4.1650   -2.2500 ca        1 MOL      0.121946
     87 C29         0.2700    5.5040   -1.9890 ca        1 MOL     -0.204229
     88 C30         0.3530    3.5490   -3.4690 ca        1 MOL     -0.204229
     89 C31         1.0280    6.2550   -2.9060 ca        1 MOL     -0.255816
     90 C32         1.1310    4.3040   -4.3960 ca        1 MOL     -0.255816
     91 C33         1.4760    5.6240   -4.0830 ca        1 MOL      0.355741
     92 O14         2.1460    6.3480   -4.9340 oh        1 MOL     -0.439225
     93 H37        -0.9390    1.0050    0.6040 hn        1 MOL      0.309223
     94 H38         0.1060    3.6360    0.6810 h1        1 MOL      0.063821
     95 H39        -1.8200    4.0120   -0.9640 hc        1 MOL      0.206655
     96 H40        -1.4210    2.5100   -1.7550 hc        1 MOL      0.206655
     97 H41        -0.0880    5.9800   -1.0960 ha        1 MOL      0.159205
     98 H42         0.1950    2.5190   -3.7490 ha        1 MOL      0.159205
     99 H43         1.2740    7.2930   -2.7540 ha        1 MOL      0.152247
    100 H44         1.5140    3.8640   -5.2950 ha        1 MOL      0.152247
    101 H45         2.3220    5.8200   -5.7230 ho        1 MOL      0.340409
    102 N10         2.0510    2.8050   -0.6360 n         1 MOL      0.099770
    103 C34         3.4070    2.2270   -0.6900 c3        1 MOL     -0.065904
    104 C35         3.5760    1.5760    0.6260 c         1 MOL      0.247594
    105 O15         4.1250    0.4860    0.7380 o         1 MOL     -0.395264
    106 C36         4.4590    3.3390   -1.0120 c3        1 MOL      0.066863
    107 C37         4.2710    3.5490   -2.5190 c3        1 MOL      0.006098
    108 C38         5.9490    2.9050   -0.8260 c3        1 MOL     -0.327413
    109 C39         4.9500    4.8800   -3.0280 c3        1 MOL     -0.126571
    110 H46         1.8890    3.7570   -0.3300 hn        1 MOL      0.144489
    111 H47         3.4120    1.3800   -1.3810 h1        1 MOL      0.054944
    112 H48         4.3010    4.2340   -0.4210 hc        1 MOL      0.004991
    113 H49         3.1950    3.5590   -2.7100 hc        1 MOL     -0.008819
    114 H50         4.6670    2.6980   -3.0800 hc        1 MOL     -0.008819
    115 H51         6.6400    3.7340   -1.0100 hc        1 MOL      0.110051
    116 H52         6.0270    2.5750    0.2160 hc        1 MOL      0.110051
    117 H53         6.2520    2.0870   -1.4730 hc        1 MOL      0.110051
    118 H54         4.5510    5.8040   -2.5990 hc        1 MOL      0.040139
    119 H55         6.0340    4.7930   -2.9140 hc        1 MOL      0.040139
    120 H56         4.7760    5.0140   -4.0910 hc        1 MOL      0.040139
    121 N11         3.0840    2.2230    1.7090 n         1 MOL     -0.181338
    122 C40         3.0720    1.6290    3.0410 c3        1 MOL     -0.078522
    123 C41         4.4970    1.3460    3.5800 c         1 MOL      0.385339
    124 O16         4.6670    0.3580    4.2740 o         1 MOL     -0.471151
    125 C42         2.4630    2.5730    4.0440 c3        1 MOL      0.288398
    126 O17         1.0390    2.6230    3.7440 oh        1 MOL     -0.552142
    127 H57         2.6190    3.1060    1.5800 hn        1 MOL      0.198126
    128 H58         2.5220    0.6900    3.0110 h1        1 MOL      0.092090
    129 H59         2.9470    3.5550    3.9870 h1        1 MOL      0.007422
    130 H60         2.6800    2.2340    5.0580 h1        1 MOL      0.007422
    131 H61         0.7630    1.7130    3.5930 ho        1 MOL      0.274205
    132 N12         5.4850    2.1410    3.1630 n         1 MOL     -0.290741
    133 C43         6.8300    1.8730    3.6070 c3        1 MOL      0.115131
    134 C44         7.3810    0.3870    3.2180 c         1 MOL      0.600231
    135 O18         8.2040   -0.0960    3.9550 o         1 MOL     -0.544539
    136 C45         7.1560    2.4200    4.9380 c3        1 MOL     -0.469805
    137 H62         5.2380    2.9800    2.6550 hn        1 MOL      0.225369
    138 H63         7.4040    2.3830    2.8360 h1        1 MOL      0.046445
    139 H64         6.9430    3.4900    5.0520 hc        1 MOL      0.139336
    140 H65         6.4620    2.0100    5.6690 hc        1 MOL      0.139336
    141 H66         8.1970    2.2850    5.2260 hc        1 MOL      0.139336
    142 N13         7.0110   -0.2190    2.0950 n         1 MOL     -0.503330
    143 C46         7.4280   -1.5000    1.6170 c3        1 MOL      0.279616
    144 C47         8.1960   -1.4180    0.2690 c         1 MOL      0.402233
    145 O19         7.9600   -0.6610   -0.6330 o         1 MOL     -0.449591
    146 C48         6.0960   -2.2820    1.4160 c3        1 MOL     -0.036605
    147 H67         6.2110    0.1920    1.6260 hn        1 MOL      0.158337
    148 H68         8.0670   -2.0740    2.2810 h1        1 MOL      0.012934
    149 H69         6.2200   -3.2860    1.0200 hc        1 MOL      0.006838
    150 H70         5.5730   -2.4280    2.3580 hc        1 MOL      0.006838
    151 H71         5.3840   -1.7760    0.7610 hc        1 MOL      0.006838
    152 N14         9.1730   -2.3410    0.1550 n         1 MOL     -0.545062
    153 C49         9.9400   -2.5210   -1.1250 c3        1 MOL      0.261498
    154 C50        10.6740   -1.2460   -1.6280 c         1 MOL      0.260887
    155 O20        10.8390   -1.0500   -2.8410 o         1 MOL     -0.476141
    156 C51         9.0710   -3.1540   -2.1950 c3        1 MOL      0.048551
    157 C52         8.5230   -4.5770   -1.8060 c3        1 MOL     -0.151138
    158 C53         7.3190   -5.0270   -2.6370 c         1 MOL      0.634618
    159 O21         6.3410   -5.6980   -2.0960 o         1 MOL     -0.711756
    160 O22         7.3370   -4.7290   -3.8700 o         1 MOL     -0.711756
    161 H72         9.3320   -2.9410    0.9550 hn        1 MOL      0.305769
    162 H73        10.7170   -3.2250   -0.8430 h1        1 MOL     -0.007519
    163 H74         9.8090   -3.2840   -2.9740 hc        1 MOL      0.033228
    164 H75         8.3150   -2.4050   -2.4560 hc        1 MOL      0.033228
    165 H76         8.2100   -4.6530   -0.7660 hc        1 MOL      0.005219
    166 H77         9.3690   -5.2400   -1.9570 hc        1 MOL      0.005219
    167 N15        10.9670   -0.2610   -0.7590 n         1 MOL     -0.187320
    168 C54        11.4950    1.0520   -1.0870 c3        1 MOL     -0.008747
    169 H78        11.6200    1.1340   -2.1670 h1        1 MOL      0.044502
    170 H79        10.8030    1.8200   -0.7430 h1        1 MOL      0.044502
    171 H80        12.4600    1.1880   -0.6000 h1        1 MOL      0.044502
    172 H81        10.8780   -0.5300    0.2050 hn        1 MOL      0.180178
    173 Ca1         0.3780   -1.5890   -1.5210 Ca        1 MOL      1.779735
    174 O23         0.9130    0.1190   -3.7420 oh        1 MOL     -0.823449
    175 H82         0.4870    0.2010   -4.5960 ho        1 MOL      0.409683
    176 H83         1.8400    0.3080   -3.9300 ho        1 MOL      0.409683
    177 O24         0.4700   -3.2010   -3.7990 oh        1 MOL     -0.823449
    178 H84        -0.1550   -3.3520   -4.5010 ho        1 MOL      0.409683
    179 H85         1.0940   -3.9250   -3.8820 ho        1 MOL      0.409683
    180 O25        -1.2160   -3.6600   -1.6150 oh        1 MOL     -0.823449
    181 H86        -0.9530   -4.5670   -1.7050 ho        1 MOL      0.409683
    182 H87        -1.8470   -3.5180   -2.3250 ho        1 MOL      0.409683
    183 O26         2.9380   -0.9260   -1.3970 oh        1 MOL     -0.823449
    184 H88         3.5540   -0.8560   -2.1390 ho        1 MOL      0.409683
    185 H89         3.3910   -0.5080   -0.6680 ho        1 MOL      0.409683
    186 O27         1.8780   -3.8260   -0.7840 oh        1 MOL     -0.823449
    187 H90         1.5990   -4.6770   -0.4510 ho        1 MOL      0.409683
    188 H91         2.8280   -3.9140   -0.8920 ho        1 MOL      0.409683
@<TRIPOS>BOND
     1    1    2 1   
     2    1    4 1   
     3    1    5 1   
     4    1    6 1   
     5    2    3 2   
     6    2    7 1   
     7    7    8 1   
     8    7   15 1   
     9    8    9 1   
    10    8   11 1   
    11    8   16 1   
    12    9   10 2   
    13    9   19 1   
    14   11   12 1   
    15   11   17 1   
    16   11   18 1   
    17   12   13 1   
    18   12   14 1   
    19   19   20 1   
    20   19   28 1   
    21   20   21 1   
    22   20   23 1   
    23   20   29 1   
    24   21   22 2   
    25   21   41 1   
    26   23   24 1   
    27   23   30 1   
    28   23   31 1   
    29   24   25 1   
    30   24   32 1   
    31   24   33 1   
    32   25   26 1   
    33   25   34 1   
    34   25   35 1   
    35   26   27 1   
    36   26   36 1   
    37   26   37 1   
    38   27   38 1   
    39   27   39 1   
    40   27   40 1   
    41   41   42 1   
    42   41   49 1   
    43   42   43 1   
    44   42   45 1   
    45   42   50 1   
    46   43   44 2   
    47   43   53 1   
    48   45   46 1   
    49   45   51 1   
    50   45   52 1   
    51   46   47 1   
    52   46   48 1   
    53   53   54 1   
    54   53   57 1   
    55   54   55 1   
    56   54   58 1   
    57   54   59 1   
    58   55   56 2   
    59   55   60 1   
    60   60   61 1   
    61   60   68 1   
    62   61   62 1   
    63   61   64 1   
    64   61   69 1   
    65   62   63 2   
    66   62   74 1   
    67   64   65 1   
    68   64   70 1   
    69   64   71 1   
    70   65   66 1   
    71   65   67 2   
    72   66   72 1   
    73   66   73 1   
    74   74   75 1   
    75   74   78 1   
    76   75   76 1   
    77   75   79 1   
    78   75   80 1   
    79   76   77 2   
    80   76   81 1   
    81   81   82 1   
    82   81   93 1   
    83   82   83 1   
    84   82   85 1   
    85   82   94 1   
    86   83   84 2   
    87   83  102 1   
    88   85   86 1   
    89   85   95 1   
    90   85   96 1   
    91   86   87 ar  
    92   86   88 ar  
    93   87   89 ar  
    94   87   97 1   
    95   88   90 ar  
    96   88   98 1   
    97   89   91 ar  
    98   89   99 1   
    99   90   91 ar  
   100   90  100 1   
   101   91   92 1   
   102   92  101 1   
   103  102  103 1   
   104  102  110 1   
   105  103  104 1   
   106  103  106 1   
   107  103  111 1   
   108  104  105 2   
   109  104  121 1   
   110  106  107 1   
   111  106  108 1   
   112  106  112 1   
   113  107  109 1   
   114  107  113 1   
   115  107  114 1   
   116  108  115 1   
   117  108  116 1   
   118  108  117 1   
   119  109  118 1   
   120  109  119 1   
   121  109  120 1   
   122  121  122 1   
   123  121  127 1   
   124  122  123 1   
   125  122  125 1   
   126  122  128 1   
   127  123  124 2   
   128  123  132 1   
   129  125  126 1   
   130  125  129 1   
   131  125  130 1   
   132  126  131 1   
   133  132  133 1   
   134  132  137 1   
   135  133  134 1   
   136  133  136 1   
   137  133  138 1   
   138  134  135 2   
   139  134  142 1   
   140  136  139 1   
   141  136  140 1   
   142  136  141 1   
   143  142  143 1   
   144  142  147 1   
   145  143  144 1   
   146  143  146 1   
   147  143  148 1   
   148  144  145 2   
   149  144  152 1   
   150  146  149 1   
   151  146  150 1   
   152  146  151 1   
   153  152  153 1   
   154  152  161 1   
   155  153  154 1   
   156  153  156 1   
   157  153  162 1   
   158  154  155 2   
   159  154  167 1   
   160  156  157 1   
   161  156  163 1   
   162  156  164 1   
   163  157  158 1   
   164  157  165 1   
   165  157  166 1   
   166  158  159 1   
   167  158  160 1   
   168  167  168 1   
   169  167  172 1   
   170  168  169 1   
   171  168  170 1   
   172  168  171 1   
   173  174  175 1   
   174  174  176 1   
   175  177  178 1   
   176  177  179 1   
   177  180  181 1   
   178  180  182 1   
   179  183  184 1   
   180  183  185 1   
   181  186  187 1   
   182  186  188 1   
@<TRIPOS>SUBSTRUCTURE
     1 MOL         1 TEMP              0 ****  ****    0 ROOT
