@<TRIPOS>MOLECULE
MOL
  195   189     1     0     0
SMALL
resp


@<TRIPOS>ATOM
      1 C1         -1.1560    8.5370    1.6010 c3        1 MOL     -0.309572
      2 C2         -1.2840    7.0360    1.7950 c         1 MOL      0.618276
      3 O1         -0.9810    6.5150    2.9100 o         1 MOL     -0.586061
      4 H1         -0.2480    8.8900    2.0900 hc        1 MOL      0.081082
      5 H2         -1.1070    8.7630    0.5370 hc        1 MOL      0.081082
      6 H3         -2.0210    9.0350    2.0390 hc        1 MOL      0.081082
      7 N1         -1.7910    6.2820    0.7780 n         1 MOL     -0.491926
      8 C3         -1.8910    4.8200    0.8480 c3        1 MOL      0.122363
      9 C4         -0.7010    4.1020    0.2720 c         1 MOL      0.494574
     10 O2         -0.6380    2.8560    0.4350 o         1 MOL     -0.495128
     11 C5         -3.1890    4.4190    0.1080 c3        1 MOL     -0.200200
     12 C6         -3.4510    5.0790   -1.2850 c         1 MOL      0.615621
     13 O3         -4.5170    4.7450   -1.9060 o         1 MOL     -0.684566
     14 O4         -2.7460    6.0710   -1.7250 o         1 MOL     -0.684566
     15 H4         -1.9220    6.7350   -0.1170 hn        1 MOL      0.296698
     16 H5         -1.9340    4.4410    1.8620 h1        1 MOL      0.083018
     17 H6         -4.0590    4.6840    0.7190 hc        1 MOL      0.067227
     18 H7         -3.2300    3.3190    0.0690 hc        1 MOL      0.067227
     19 N2          0.3540    4.7300   -0.2830 n         1 MOL     -0.548826
     20 C7          1.5530    4.0500   -0.7300 c3        1 MOL      0.109268
     21 C8          2.5200    3.6090    0.3730 c         1 MOL      0.597835
     22 O5          2.7380    4.4060    1.3050 o         1 MOL     -0.554442
     23 C9          2.1960    4.9180   -1.8340 c3        1 MOL     -0.025848
     24 C10         1.3230    5.0010   -3.1240 c3        1 MOL      0.287788
     25 C11         2.0620    5.5270   -4.3300 c3        1 MOL     -0.190724
     26 C12         3.1470    4.6260   -4.8840 c3        1 MOL     -0.073140
     27 N3          2.7050    3.2520   -5.1890 n4        1 MOL     -0.432825
     28 H8          0.3690    5.7150   -0.4950 hn        1 MOL      0.310465
     29 H9          1.2500    3.1340   -1.2380 h1        1 MOL      0.103306
     30 H10         3.2340    4.6230   -1.9890 hc        1 MOL      0.017768
     31 H11         2.3080    5.9300   -1.4430 hc        1 MOL      0.017768
     32 H12         0.4310    5.5600   -2.8350 hc        1 MOL     -0.068721
     33 H13         1.0440    3.9690   -3.3650 hc        1 MOL     -0.068721
     34 H14         2.4580    6.5080   -4.0560 hc        1 MOL      0.071696
     35 H15         1.3200    5.7160   -5.1020 hc        1 MOL      0.071696
     36 H16         3.9640    4.7120   -4.1630 hx        1 MOL      0.120112
     37 H17         3.6970    5.1030   -5.6990 hx        1 MOL      0.120112
     38 H18         2.4550    2.7200   -4.3670 hn        1 MOL      0.348140
     39 H19         1.9290    3.3160   -5.8330 hn        1 MOL      0.348140
     40 H20         3.4230    2.7720   -5.7180 hn        1 MOL      0.348140
     41 N4          3.1750    2.4590    0.3510 n         1 MOL     -0.595359
     42 C13         3.2380    1.3530   -0.6630 c3        1 MOL      0.080035
     43 C14         3.9460    1.7370   -2.0180 c         1 MOL      0.713966
     44 O6          3.3170    1.7400   -3.0610 o         1 MOL     -0.682979
     45 C15         1.9340    0.5320   -0.7700 c3        1 MOL     -0.398361
     46 C16         1.4120    0.0680    0.6030 c         1 MOL      0.664152
     47 O7          0.1930   -0.2690    0.7190 o         1 MOL     -0.681254
     48 O8          2.1190    0.0740    1.6480 o         1 MOL     -0.681254
     49 H21         3.7790    2.1980    1.1090 hn        1 MOL      0.339922
     50 H22         3.8300    0.5720   -0.1760 h1        1 MOL      0.055032
     51 H23         2.2250   -0.4030   -1.2500 hc        1 MOL      0.110924
     52 H24         1.1990    1.0090   -1.4140 hc        1 MOL      0.110924
     53 N5          5.2090    2.0690   -2.0720 n         1 MOL     -0.492749
     54 C17         6.1040    2.0110   -0.9230 c3        1 MOL      0.120244
     55 C18         7.5860    2.3220   -1.2640 c         1 MOL      0.526040
     56 O9          7.7700    3.0630   -2.2290 o         1 MOL     -0.554239
     57 H25         5.7070    2.1490   -2.9560 hn        1 MOL      0.291624
     58 H26         5.9750    1.0770   -0.3690 h1        1 MOL      0.022625
     59 H27         5.7240    2.8040   -0.2770 h1        1 MOL      0.022625
     60 N6          8.6020    1.9240   -0.4770 n         1 MOL     -0.367054
     61 C19         8.5030    1.2100    0.8250 c3        1 MOL     -0.126171
     62 C20         8.1410   -0.2600    0.6470 c         1 MOL      0.698554
     63 O10         8.5330   -0.9330   -0.3060 o         1 MOL     -0.543311
     64 C21         9.7190    1.4330    1.7010 c3        1 MOL     -0.068066
     65 C22        11.0030    1.8560    0.9390 c         1 MOL      0.706366
     66 O11        11.8480    0.9380    0.7650 o         1 MOL     -0.665952
     67 O12        11.2190    3.0860    0.7760 o         1 MOL     -0.665952
     68 H28         9.5320    2.2670   -0.6780 hn        1 MOL      0.276322
     69 H29         7.6650    1.6070    1.3910 h1        1 MOL      0.047743
     70 H30         9.9530    0.5670    2.3150 hc        1 MOL      0.016552
     71 H31         9.4730    2.2570    2.3680 hc        1 MOL      0.016552
     72 N7          7.2870   -0.7780    1.5260 n         1 MOL     -0.627906
     73 C23         6.9110   -2.2100    1.5240 c3        1 MOL      0.042431
     74 C24         5.7530   -2.6390    0.5620 c         1 MOL      0.505655
     75 O13         5.0840   -1.8340   -0.1080 o         1 MOL     -0.468734
     76 H32         6.7750   -0.1660    2.1490 hn        1 MOL      0.342813
     77 H33         6.6050   -2.5410    2.5110 h1        1 MOL      0.071896
     78 H34         7.7760   -2.8300    1.2840 h1        1 MOL      0.071896
     79 N8          5.6400   -3.9550    0.3460 n         1 MOL     -0.433187
     80 C25         4.7670   -4.6150   -0.5470 c3        1 MOL     -0.142905
     81 C26         3.3150   -4.1340   -0.3260 c         1 MOL      0.756137
     82 O14         2.9470   -4.0960    0.8430 o         1 MOL     -0.672696
     83 C27         4.8900   -6.1580   -0.4650 c3        1 MOL      0.433144
     84 C28         6.1590   -6.7100   -1.0340 c3        1 MOL     -0.333466
     85 O15         3.9200   -6.7350   -1.2820 oh        1 MOL     -0.589772
     86 H35         6.2120   -4.5420    0.9310 hn        1 MOL      0.243332
     87 H36         5.0860   -4.3880   -1.5610 h1        1 MOL      0.087880
     88 H37         4.8150   -6.5970    0.5280 h1        1 MOL      0.040289
     89 H38         4.1040   -6.4740   -2.1840 ho        1 MOL      0.368649
     90 H39         6.3120   -6.3470   -2.0520 hc        1 MOL      0.086010
     91 H40         6.9840   -6.3780   -0.4120 hc        1 MOL      0.086010
     92 H41         6.1030   -7.7960   -1.1300 hc        1 MOL      0.086010
     93 N9          2.6340   -3.7170   -1.3270 n         1 MOL     -0.520625
     94 C29         1.1850   -3.3520   -1.3350 c3        1 MOL      0.035610
     95 C30         0.3140   -4.6130   -1.1170 c         1 MOL      0.432088
     96 O16         0.6020   -5.6430   -1.7410 o         1 MOL     -0.504862
     97 C31         0.7640   -2.5910   -2.6490 c3        1 MOL      0.176459
     98 C32        -0.7260   -2.1100   -2.5790 c3        1 MOL      0.368546
     99 C33         1.1160   -3.3080   -3.9260 c3        1 MOL     -0.422571
    100 C34        -0.9620   -1.0060   -3.5490 c3        1 MOL     -0.201802
    101 H42         3.1240   -3.6270   -2.2000 hn        1 MOL      0.260978
    102 H43         1.0260   -2.6010   -0.5640 h1        1 MOL      0.140869
    103 H44         1.3280   -1.6630   -2.6930 hc        1 MOL      0.000885
    104 H45        -0.9890   -1.7340   -1.5870 hc        1 MOL     -0.162860
    105 H46        -1.3970   -2.9640   -2.7140 hc        1 MOL     -0.162860
    106 H47         2.1900   -3.5220   -3.9610 hc        1 MOL      0.104292
    107 H48         0.5460   -4.2210   -4.1390 hc        1 MOL      0.104292
    108 H49         0.8580   -2.5990   -4.7140 hc        1 MOL      0.104292
    109 H50        -1.0040   -1.3820   -4.5780 hc        1 MOL      0.028146
    110 H51        -1.8700   -0.4640   -3.2840 hc        1 MOL      0.028146
    111 H52        -0.1630   -0.2800   -3.4350 hc        1 MOL      0.028146
    112 N10        -0.7180   -4.3850   -0.2580 n         1 MOL     -0.300616
    113 C35        -1.7840   -5.4040   -0.1020 c3        1 MOL      0.104713
    114 C36        -3.0960   -4.8280   -0.7310 c         1 MOL      0.249991
    115 O17        -3.9060   -5.5940   -1.1790 o         1 MOL     -0.525079
    116 C37        -2.0730   -5.7270    1.3690 c3        1 MOL      0.240068
    117 C38        -2.3840   -4.5820    2.3130 c3        1 MOL     -0.061845
    118 O18        -0.9460   -6.4280    1.7780 oh        1 MOL     -0.607255
    119 H53        -0.6140   -3.5800    0.3460 hn        1 MOL      0.170926
    120 H54        -1.5680   -6.2770   -0.7180 h1        1 MOL      0.112931
    121 H55        -2.9210   -6.4040    1.3970 h1        1 MOL      0.045395
    122 H56        -0.6000   -6.0820    2.5980 ho        1 MOL      0.360503
    123 H57        -3.1810   -4.0430    1.7990 hc        1 MOL      0.014227
    124 H58        -2.7140   -5.0740    3.2280 hc        1 MOL      0.014227
    125 H59        -1.5320   -3.9120    2.4100 hc        1 MOL      0.014227
    126 N11        -3.2530   -3.5280   -0.8590 n         1 MOL      0.034599
    127 C39        -4.3650   -2.8520   -1.5640 c3        1 MOL     -0.141397
    128 C40        -5.6530   -2.7240   -0.8090 c         1 MOL      0.501978
    129 O19        -5.9720   -3.5280    0.1010 o         1 MOL     -0.461304
    130 C41        -4.5980   -3.3680   -2.9890 c3        1 MOL      0.333766
    131 C42        -5.0520   -2.2600   -3.9920 c3        1 MOL     -0.336653
    132 O20        -5.5190   -4.3210   -2.9780 oh        1 MOL     -0.624425
    133 H60        -2.6650   -2.9110   -0.3140 hn        1 MOL      0.268297
    134 H61        -4.1040   -1.7980   -1.6730 h1        1 MOL      0.010588
    135 H62        -3.6830   -3.8370   -3.3520 h1        1 MOL      0.039396
    136 H63        -5.1190   -5.0070   -2.4400 ho        1 MOL      0.426719
    137 H64        -6.0510   -1.8420   -3.8270 hc        1 MOL      0.087445
    138 H65        -4.3240   -1.4620   -4.1110 hc        1 MOL      0.087445
    139 H66        -4.9970   -2.8000   -4.9430 hc        1 MOL      0.087445
    140 N12        -6.5100   -1.6800   -1.1430 n         1 MOL     -0.433333
    141 C43        -7.6890   -1.3340   -0.3200 c3        1 MOL     -0.143313
    142 C44        -7.5060   -0.5830    0.9670 c         1 MOL      0.411280
    143 O21        -8.3520   -0.7310    1.8200 o         1 MOL     -0.524485
    144 C45        -8.6630   -0.5790   -1.2120 c3        1 MOL     -0.071755
    145 C46        -8.1320    0.7920   -1.6390 c3        1 MOL      0.237664
    146 C47        -9.3270    1.7210   -1.9710 c3        1 MOL     -0.005196
    147 C48       -10.4000    1.1590   -2.9270 c3        1 MOL      0.012330
    148 N13        -9.8880    1.0800   -4.3200 n4        1 MOL     -0.313634
    149 H67        -6.1180   -1.0930   -1.8540 hn        1 MOL      0.305045
    150 H68        -8.0930   -2.3060   -0.0410 h1        1 MOL      0.161814
    151 H69        -9.5910   -0.5580   -0.6460 hc        1 MOL      0.041451
    152 H70        -8.8480   -1.1430   -2.1240 hc        1 MOL      0.041451
    153 H71        -7.4930    0.5670   -2.5040 hc        1 MOL     -0.093569
    154 H72        -7.4510    1.1900   -0.8880 hc        1 MOL     -0.093569
    155 H73        -8.9510    2.6500   -2.3990 hc        1 MOL      0.047086
    156 H74        -9.8840    1.9730   -1.0740 hc        1 MOL      0.047086
    157 H75       -11.1830    1.9190   -2.9360 hx        1 MOL      0.074181
    158 H76       -10.7940    0.2080   -2.5810 hx        1 MOL      0.074181
    159 H77       -10.6860    1.0850   -4.9240 hn        1 MOL      0.290043
    160 H78        -9.3030    1.8810   -4.5430 hn        1 MOL      0.290043
    161 H79        -9.3400    0.2520   -4.5220 hn        1 MOL      0.290043
    162 N14        -6.3970    0.1180    1.1810 n         1 MOL     -0.001746
    163 C49        -6.1240    0.7070    2.5230 c3        1 MOL     -0.290233
    164 C50        -6.1480    2.2410    2.4570 c         1 MOL      0.502847
    165 O22        -5.7480    2.7720    1.4480 o         1 MOL     -0.472968
    166 C51        -4.7610    0.1940    3.1020 c3        1 MOL      0.083921
    167 C52        -4.4170   -1.2900    3.0010 c3        1 MOL      0.231717
    168 C53        -3.0730   -1.4250    3.7490 c         1 MOL      0.582548
    169 O23        -3.0410   -1.6420    4.9940 o         1 MOL     -0.739341
    170 O24        -2.0040   -1.2020    3.1280 o         1 MOL     -0.739341
    171 H80        -5.7450    0.3200    0.4340 hn        1 MOL      0.200380
    172 H81        -6.8720    0.3800    3.2460 h1        1 MOL      0.118975
    173 H82        -4.7830    0.4940    4.1480 hc        1 MOL      0.010761
    174 H83        -3.9000    0.6820    2.6460 hc        1 MOL      0.010761
    175 H84        -4.3280   -1.6470    1.9760 hc        1 MOL     -0.079360
    176 H85        -5.1470   -1.8800    3.5470 hc        1 MOL     -0.079360
    177 N15        -6.5390    2.9430    3.5430 n         1 MOL     -0.393887
    178 C54        -6.9540    4.3660    3.3580 c3        1 MOL     -0.132075
    179 H86        -6.1090    5.0200    3.5740 h1        1 MOL      0.097384
    180 H87        -7.2770    4.5200    2.3280 h1        1 MOL      0.097384
    181 H88        -7.7750    4.5980    4.0350 h1        1 MOL      0.097384
    182 H89        -6.8770    2.4120    4.3290 hn        1 MOL      0.298053
    183 Ca1         0.5420   -0.6790    3.6630 Ca        1 MOL      1.787047
    184 O25        -1.0730   -0.0910    5.7810 oh        1 MOL     -0.931083
    185 H90        -1.8070   -0.6030    5.4350 ho        1 MOL      0.448618
    186 H91        -1.3020    0.0770    6.6880 ho        1 MOL      0.448618
    187 O26         0.9990   -2.9810    2.3780 oh        1 MOL     -0.931083
    188 H92         0.7910   -3.7720    2.8760 ho        1 MOL      0.448618
    189 H93         1.6270   -3.2640    1.7270 ho        1 MOL      0.448618
    190 O27        -0.2480    1.7600    2.9970 oh        1 MOL     -0.931083
    191 H94        -0.4190    1.9470    2.0800 ho        1 MOL      0.448618
    192 H95         0.2590    2.5080    3.3000 ho        1 MOL      0.448618
    193 O28         3.4370   -1.0190    4.4650 oh        1 MOL     -0.931083
    194 H96         3.6380   -1.9450    4.3130 ho        1 MOL      0.448618
    195 H97         4.2880   -0.6110    4.5910 ho        1 MOL      0.448618
@<TRIPOS>BOND
     1    1    2 1   
     2    1    4 1   
     3    1    5 1   
     4    1    6 1   
     5    2    3 2   
     6    2    7 1   
     7    7    8 1   
     8    7   15 1   
     9    8    9 1   
    10    8   11 1   
    11    8   16 1   
    12    9   10 2   
    13    9   19 1   
    14   11   12 1   
    15   11   17 1   
    16   11   18 1   
    17   12   13 1   
    18   12   14 1   
    19   19   20 1   
    20   19   28 1   
    21   20   21 1   
    22   20   23 1   
    23   20   29 1   
    24   21   22 2   
    25   21   41 1   
    26   23   24 1   
    27   23   30 1   
    28   23   31 1   
    29   24   25 1   
    30   24   32 1   
    31   24   33 1   
    32   25   26 1   
    33   25   34 1   
    34   25   35 1   
    35   26   27 1   
    36   26   36 1   
    37   26   37 1   
    38   27   38 1   
    39   27   39 1   
    40   27   40 1   
    41   41   42 1   
    42   41   49 1   
    43   42   43 1   
    44   42   45 1   
    45   42   50 1   
    46   43   44 2   
    47   43   53 1   
    48   45   46 1   
    49   45   51 1   
    50   45   52 1   
    51   46   47 1   
    52   46   48 1   
    53   53   54 1   
    54   53   57 1   
    55   54   55 1   
    56   54   58 1   
    57   54   59 1   
    58   55   56 2   
    59   55   60 1   
    60   60   61 1   
    61   60   68 1   
    62   61   62 1   
    63   61   64 1   
    64   61   69 1   
    65   62   63 2   
    66   62   72 1   
    67   64   65 1   
    68   64   70 1   
    69   64   71 1   
    70   65   66 1   
    71   65   67 1   
    72   72   73 1   
    73   72   76 1   
    74   73   74 1   
    75   73   77 1   
    76   73   78 1   
    77   74   75 2   
    78   74   79 1   
    79   79   80 1   
    80   79   86 1   
    81   80   81 1   
    82   80   83 1   
    83   80   87 1   
    84   81   82 2   
    85   81   93 1   
    86   83   84 1   
    87   83   85 1   
    88   83   88 1   
    89   84   90 1   
    90   84   91 1   
    91   84   92 1   
    92   85   89 1   
    93   93   94 1   
    94   93  101 1   
    95   94   95 1   
    96   94   97 1   
    97   94  102 1   
    98   95   96 2   
    99   95  112 1   
   100   97   98 1   
   101   97   99 1   
   102   97  103 1   
   103   98  100 1   
   104   98  104 1   
   105   98  105 1   
   106   99  106 1   
   107   99  107 1   
   108   99  108 1   
   109  100  109 1   
   110  100  110 1   
   111  100  111 1   
   112  112  113 1   
   113  112  119 1   
   114  113  114 1   
   115  113  116 1   
   116  113  120 1   
   117  114  115 2   
   118  114  126 1   
   119  116  117 1   
   120  116  118 1   
   121  116  121 1   
   122  117  123 1   
   123  117  124 1   
   124  117  125 1   
   125  118  122 1   
   126  126  127 1   
   127  126  133 1   
   128  127  128 1   
   129  127  130 1   
   130  127  134 1   
   131  128  129 2   
   132  128  140 1   
   133  130  131 1   
   134  130  132 1   
   135  130  135 1   
   136  131  137 1   
   137  131  138 1   
   138  131  139 1   
   139  132  136 1   
   140  140  141 1   
   141  140  149 1   
   142  141  142 1   
   143  141  144 1   
   144  141  150 1   
   145  142  143 2   
   146  142  162 1   
   147  144  145 1   
   148  144  151 1   
   149  144  152 1   
   150  145  146 1   
   151  145  153 1   
   152  145  154 1   
   153  146  147 1   
   154  146  155 1   
   155  146  156 1   
   156  147  148 1   
   157  147  157 1   
   158  147  158 1   
   159  148  159 1   
   160  148  160 1   
   161  148  161 1   
   162  162  163 1   
   163  162  171 1   
   164  163  164 1   
   165  163  166 1   
   166  163  172 1   
   167  164  165 2   
   168  164  177 1   
   169  166  167 1   
   170  166  173 1   
   171  166  174 1   
   172  167  168 1   
   173  167  175 1   
   174  167  176 1   
   175  168  169 1   
   176  168  170 1   
   177  177  178 1   
   178  177  182 1   
   179  178  179 1   
   180  178  180 1   
   181  178  181 1   
   182  184  185 1   
   183  184  186 1   
   184  187  188 1   
   185  187  189 1   
   186  190  191 1   
   187  190  192 1   
   188  193  194 1   
   189  193  195 1   
@<TRIPOS>SUBSTRUCTURE
     1 MOL         1 TEMP              0 ****  ****    0 ROOT
