@<TRIPOS>MOLECULE
MOL
  192   187     1     0     0
SMALL
resp


@<TRIPOS>ATOM
      1 C1         -1.9900    7.7880    1.2520 c3        1 MOL     -0.363486
      2 C2         -2.1330    6.2550    1.3950 c         1 MOL      0.641865
      3 O1         -1.8980    5.6340    2.4420 o         1 MOL     -0.557491
      4 H1         -1.8040    8.2270    2.2320 hc        1 MOL      0.100378
      5 H2         -1.1550    8.0150    0.5890 hc        1 MOL      0.100378
      6 H3         -2.9080    8.2020    0.8360 hc        1 MOL      0.100378
      7 N1         -2.7480    5.5630    0.4020 n         1 MOL     -0.489212
      8 C3         -2.8160    4.0980    0.3870 c3        1 MOL      0.093446
      9 C4         -1.4070    3.4210    0.2900 c         1 MOL      0.491191
     10 O2         -1.2610    2.3490    0.7880 o         1 MOL     -0.462541
     11 C5         -3.7950    3.6080   -0.7270 c3        1 MOL     -0.220494
     12 C6         -3.6520    4.3060   -2.0540 c         1 MOL      0.706885
     13 O3         -4.0190    5.4750   -2.1240 o         1 MOL     -0.689132
     14 O4         -3.3940    3.5870   -3.0920 o         1 MOL     -0.689132
     15 H4         -2.9450    6.0720   -0.4450 hn        1 MOL      0.296152
     16 H5         -3.3060    3.6620    1.2610 h1        1 MOL      0.081446
     17 H6         -4.8220    3.7420   -0.3640 hc        1 MOL      0.069031
     18 H7         -3.6850    2.5270   -0.7950 hc        1 MOL      0.069031
     19 N2         -0.3540    4.1020   -0.2280 n         1 MOL     -0.499653
     20 C7          0.8910    3.3950   -0.5780 c3        1 MOL      0.214745
     21 C8          1.7140    3.1910    0.7640 c         1 MOL      0.452256
     22 O5          1.9040    4.1840    1.4970 o         1 MOL     -0.571365
     23 C9          1.7120    4.1850   -1.6190 c3        1 MOL     -0.036514
     24 C10         1.4310    3.7810   -3.0450 c3        1 MOL     -0.221305
     25 C11        -0.0690    3.9610   -3.4160 c3        1 MOL      0.254242
     26 C12        -0.3690    3.6520   -4.8690 c3        1 MOL      0.048515
     27 N3         -1.7420    4.0690   -5.1820 n4        1 MOL     -0.230525
     28 H8         -0.4940    5.0510   -0.5250 hn        1 MOL      0.242419
     29 H9          0.6800    2.4400   -1.0680 h1        1 MOL      0.153199
     30 H10         2.7790    4.0520   -1.4460 hc        1 MOL      0.050423
     31 H11         1.6070    5.2670   -1.4570 hc        1 MOL      0.050423
     32 H12         1.6420    2.7290   -3.2350 hc        1 MOL      0.054289
     33 H13         2.0540    4.3880   -3.7120 hc        1 MOL      0.054289
     34 H14        -0.3850    4.9990   -3.2840 hc        1 MOL     -0.069371
     35 H15        -0.6880    3.3010   -2.8120 hc        1 MOL     -0.069371
     36 H16        -0.2310    2.6090   -5.1770 hx        1 MOL      0.050916
     37 H17         0.3020    4.2470   -5.4860 hx        1 MOL      0.050916
     38 H18        -1.9090    5.0460   -5.0060 hn        1 MOL      0.258232
     39 H19        -2.0010    3.9140   -6.1450 hn        1 MOL      0.258232
     40 H20        -2.4100    3.6490   -4.5470 hn        1 MOL      0.258232
     41 N4          2.2820    2.0720    1.0410 n         1 MOL     -0.298316
     42 C13         2.3380    0.8060    0.2680 c3        1 MOL     -0.072548
     43 C14         2.8870    0.9660   -1.1960 c         1 MOL      0.185406
     44 O6          2.2300    0.5530   -2.1670 o         1 MOL     -0.474213
     45 C15         1.0430    0.0490    0.3470 c3        1 MOL      0.052817
     46 C16         0.5410   -0.1790    1.7850 c         1 MOL      0.376120
     47 O7         -0.6470   -0.1440    2.1020 o         1 MOL     -0.673264
     48 O8          1.3110   -0.4540    2.7320 o         1 MOL     -0.673264
     49 H21         2.7110    2.0930    1.9530 hn        1 MOL      0.248604
     50 H22         3.1080    0.1720    0.7020 h1        1 MOL      0.187516
     51 H23         1.2840   -0.9320   -0.0790 hc        1 MOL      0.031122
     52 H24         0.2680    0.5210   -0.2590 hc        1 MOL      0.031122
     53 N5          4.0930    1.5720   -1.4910 n         1 MOL     -0.217580
     54 C17         5.1370    2.0790   -0.5920 c3        1 MOL      0.022078
     55 C18         6.0200    3.1510   -1.2060 c         1 MOL      0.514389
     56 O9          5.5570    3.9730   -1.9880 o         1 MOL     -0.546681
     57 H25         4.3550    1.5470   -2.4730 hn        1 MOL      0.281871
     58 H26         5.6510    1.1960   -0.1940 h1        1 MOL      0.009825
     59 H27         4.4830    2.4470    0.1900 h1        1 MOL      0.009825
     60 N6          7.2910    3.2790   -0.8540 n         1 MOL     -0.365402
     61 C19         8.0240    2.4380    0.1080 c3        1 MOL      0.031347
     62 C20         8.2730    0.9860   -0.2750 c         1 MOL      0.460184
     63 O10         8.3230    0.6810   -1.4590 o         1 MOL     -0.460476
     64 C21         9.4210    3.0800    0.3650 c3        1 MOL     -0.261745
     65 C22        10.1990    3.1990   -0.9420 c         1 MOL      0.723734
     66 O11         9.9500    4.0930   -1.7690 o         1 MOL     -0.629105
     67 O12        11.1930    2.4440   -1.1690 o         1 MOL     -0.629105
     68 H28         7.7270    4.0440   -1.3600 hn        1 MOL      0.281866
     69 H29         7.4460    2.4380    1.0380 h1        1 MOL      0.012866
     70 H30         9.9480    2.5370    1.1500 hc        1 MOL      0.057062
     71 H31         9.2690    4.0960    0.7200 hc        1 MOL      0.057062
     72 N7          8.5800    0.0790    0.6290 n         1 MOL     -0.297641
     73 C23         8.8610   -1.3680    0.3510 c3        1 MOL     -0.188277
     74 C24         7.6690   -2.2790    0.5500 c         1 MOL      0.540948
     75 O13         7.7570   -3.4500    0.1540 o         1 MOL     -0.533790
     76 H32         8.7030    0.3910    1.5820 hn        1 MOL      0.244218
     77 H33         9.6310   -1.6800    1.0560 h1        1 MOL      0.138089
     78 H34         9.2480   -1.5020   -0.6640 h1        1 MOL      0.138089
     79 N8          6.5540   -1.7080    1.0720 n         1 MOL     -0.348909
     80 C25         5.3220   -2.4520    1.1790 c3        1 MOL     -0.080510
     81 C26         4.5570   -2.5460   -0.1830 c         1 MOL      0.642325
     82 O14         4.7510   -1.6240   -1.0010 o         1 MOL     -0.508496
     83 C27         4.4120   -1.8290    2.2670 c3        1 MOL      0.564084
     84 C28         4.9150   -1.9860    3.6130 c3        1 MOL     -0.394139
     85 O15         3.1060   -2.3980    2.1810 oh        1 MOL     -0.708976
     86 H35         6.5590   -0.7680    1.4570 hn        1 MOL      0.188488
     87 H36         5.5610   -3.4580    1.5060 h1        1 MOL      0.056375
     88 H37         4.1660   -0.7880    2.0750 h1        1 MOL     -0.091409
     89 H38         2.5610   -1.6100    2.2670 ho        1 MOL      0.395557
     90 H39         5.9740   -1.8220    3.7950 hc        1 MOL      0.084791
     91 H40         4.3030   -1.3210    4.2330 hc        1 MOL      0.084791
     92 H41         4.5540   -2.9270    4.0230 hc        1 MOL      0.084791
     93 N9          3.7960   -3.6160   -0.4420 n         1 MOL     -0.459890
     94 C29         3.1420   -3.8990   -1.6920 c3        1 MOL     -0.072147
     95 C30         1.6230   -4.0490   -1.6510 c         1 MOL      0.455722
     96 O16         1.0380   -4.7240   -2.5670 o         1 MOL     -0.542515
     97 C31         3.8390   -5.1080   -2.4410 c3        1 MOL      0.083827
     98 C32         3.8000   -6.3970   -1.6100 c3        1 MOL      0.055971
     99 C33         5.2860   -4.7070   -2.8230 c3        1 MOL     -0.336651
    100 C34         4.4960   -7.6410   -2.2100 c3        1 MOL      0.029656
    101 H42         3.6860   -4.3450    0.2430 hn        1 MOL      0.287105
    102 H43         3.2900   -3.0070   -2.3060 h1        1 MOL      0.156875
    103 H44         3.2740   -5.2930   -3.3460 hc        1 MOL      0.034944
    104 H45         2.7410   -6.6040   -1.5370 hc        1 MOL     -0.031698
    105 H46         4.2430   -6.2040   -0.6280 hc        1 MOL     -0.031698
    106 H47         5.2410   -3.8020   -3.4290 hc        1 MOL      0.097608
    107 H48         5.8970   -4.5550   -1.9320 hc        1 MOL      0.097608
    108 H49         5.8010   -5.5070   -3.3570 hc        1 MOL      0.097608
    109 H50         5.5770   -7.6250   -2.3520 hc        1 MOL     -0.007921
    110 H51         4.2730   -8.4460   -1.5100 hc        1 MOL     -0.007921
    111 H52         4.1030   -7.9530   -3.1770 hc        1 MOL     -0.007921
    112 N10         0.9470   -3.6180   -0.6110 n         1 MOL     -0.247691
    113 C35        -0.4870   -3.8720   -0.3590 c3        1 MOL     -0.092271
    114 C36        -1.3500   -3.0200   -1.3300 c         1 MOL      0.654411
    115 O17        -0.9680   -1.9280   -1.7310 o         1 MOL     -0.539118
    116 C37        -0.8340   -3.8200    1.1020 c3        1 MOL      0.491191
    117 C38        -0.5120   -5.0530    1.9400 c3        1 MOL     -0.206020
    118 O18        -2.2800   -3.7170    1.3200 oh        1 MOL     -0.731521
    119 H53         1.4180   -3.0570    0.0770 hn        1 MOL      0.162320
    120 H54        -0.6290   -4.9070   -0.6890 h1        1 MOL      0.081824
    121 H55        -0.4140   -2.9020    1.5080 h1        1 MOL      0.072307
    122 H56        -2.3580   -3.1730    2.1180 ho        1 MOL      0.464793
    123 H57        -1.2020   -5.8930    1.8520 hc        1 MOL      0.028643
    124 H58         0.5300   -5.2210    1.6630 hc        1 MOL      0.028643
    125 H59        -0.4690   -4.7670    2.9890 hc        1 MOL      0.028643
    126 N11        -2.5830   -3.4550   -1.6280 n         1 MOL     -0.610665
    127 C39        -3.7110   -2.7560   -2.1850 c3        1 MOL      0.023024
    128 C40        -4.9820   -3.2800   -1.4060 c         1 MOL      0.559168
    129 O19        -5.1780   -4.4810   -1.2390 o         1 MOL     -0.488748
    130 C41        -3.8740   -2.7740   -3.7070 c3        1 MOL      0.393727
    131 C42        -4.8160   -1.6800   -4.1560 c3        1 MOL     -0.349410
    132 O20        -4.1210   -4.0430   -4.2800 oh        1 MOL     -0.593613
    133 H60        -2.8580   -4.3680   -1.2770 hn        1 MOL      0.320034
    134 H61        -3.3990   -1.7580   -1.9010 h1        1 MOL      0.083227
    135 H62        -2.8660   -2.4720   -3.9930 h1        1 MOL      0.041308
    136 H63        -3.9210   -3.9180   -5.2100 ho        1 MOL      0.384222
    137 H64        -4.7580   -0.8240   -3.4910 hc        1 MOL      0.052263
    138 H65        -4.5320   -1.2690   -5.1330 hc        1 MOL      0.052263
    139 H66        -5.8760   -1.9530   -4.1560 hc        1 MOL      0.052263
    140 N12        -5.9080   -2.3870   -1.0630 n         1 MOL     -0.313348
    141 C43        -7.1860   -2.6340   -0.3700 c3        1 MOL     -0.036638
    142 C44        -7.4440   -1.7050    0.8570 c         1 MOL      0.620536
    143 O21        -8.4160   -1.9360    1.5760 o         1 MOL     -0.562010
    144 C45        -8.4280   -2.5590   -1.2300 c3        1 MOL     -0.243539
    145 C46        -8.6110   -1.1260   -1.8090 c3        1 MOL      0.252284
    146 C47        -9.9480   -0.9390   -2.5990 c3        1 MOL     -0.093110
    147 C48        -9.9580    0.4970   -3.1990 c3        1 MOL     -0.099252
    148 N13        -8.7890    0.8430   -4.0200 n4        1 MOL     -0.283969
    149 H67        -5.7720   -1.4420   -1.3870 hn        1 MOL      0.184619
    150 H68        -7.0810   -3.6660   -0.0310 h1        1 MOL      0.105792
    151 H69        -9.3050   -2.8720   -0.6470 hc        1 MOL      0.090905
    152 H70        -8.2460   -3.1950   -2.0990 hc        1 MOL      0.090905
    153 H71        -7.8220   -1.0310   -2.5520 hc        1 MOL     -0.036912
    154 H72        -8.6130   -0.3740   -1.0030 hc        1 MOL     -0.036912
    155 H73       -10.7620   -1.1110   -1.8910 hc        1 MOL      0.049175
    156 H74        -9.9330   -1.7320   -3.3400 hc        1 MOL      0.049175
    157 H75       -10.0090    1.1950   -2.3550 hx        1 MOL      0.128498
    158 H76       -10.9200    0.6230   -3.6980 hx        1 MOL      0.128498
    159 H77        -9.0060    1.7090   -4.4890 hn        1 MOL      0.265708
    160 H78        -7.9160    1.0430   -3.5690 hn        1 MOL      0.265708
    161 H79        -8.6090    0.0800   -4.6680 hn        1 MOL      0.265708
    162 N14        -6.5990   -0.7430    1.0970 n         1 MOL     -0.423226
    163 C49        -6.5050    0.0370    2.3200 c3        1 MOL     -0.023277
    164 C50        -6.9560    1.4730    2.2440 c         1 MOL      0.530754
    165 O22        -6.9620    2.0480    1.1470 o         1 MOL     -0.578163
    166 C51        -5.0100   -0.0810    2.7510 c3        1 MOL      0.155885
    167 C52        -4.5660   -1.4280    3.2220 c3        1 MOL     -0.043592
    168 C53        -3.1750   -1.3640    3.8690 c         1 MOL      0.909358
    169 O23        -2.9450   -0.6670    4.8830 o         1 MOL     -0.861973
    170 O24        -2.2530   -2.0910    3.4850 o         1 MOL     -0.861973
    171 H80        -5.9390   -0.4450    0.3810 hn        1 MOL      0.240705
    172 H81        -7.1250   -0.4360    3.0740 h1        1 MOL      0.056649
    173 H82        -4.8510    0.6020    3.5740 hc        1 MOL     -0.028517
    174 H83        -4.4130    0.1690    1.8690 hc        1 MOL     -0.028517
    175 H84        -4.5770   -2.1250    2.3930 hc        1 MOL     -0.008597
    176 H85        -5.1910   -1.6640    4.0860 hc        1 MOL     -0.008597
    177 N15        -7.3930    2.0870    3.2850 n         1 MOL     -0.289255
    178 C54        -8.0310    3.3770    3.2790 c3        1 MOL     -0.161154
    179 H86        -8.0080    3.7980    4.2840 h1        1 MOL      0.098428
    180 H87        -7.5020    4.0420    2.5950 h1        1 MOL      0.098428
    181 H88        -9.0660    3.2690    2.9530 h1        1 MOL      0.098428
    182 H89        -7.3300    1.6400    4.1860 hn        1 MOL      0.266470
    183 Ca1        -0.4880   -0.4230    4.6420 Ca        1 MOL      1.798457
    184 O25        -1.5670    2.0410    3.6090 oh        1 MOL     -0.874374
    185 H90        -0.9340    2.7540    3.7080 ho        1 MOL      0.427561
    186 H91        -1.5170    1.8100    2.6790 ho        1 MOL      0.427561
    187 O26         2.3190   -0.2070    5.7840 oh        1 MOL     -0.874374
    188 H92         2.6900    0.6320    6.0530 ho        1 MOL      0.427561
    189 H93         2.9530   -0.8560    6.1010 ho        1 MOL      0.427561
    190 O27         0.9450   -2.5970    4.4820 oh        1 MOL     -0.874374
    191 H94         1.6950   -2.7560    3.9000 ho        1 MOL      0.427561
    192 H95         0.7910   -3.4370    4.9030 ho        1 MOL      0.427561
@<TRIPOS>BOND
     1    1    2 1   
     2    1    4 1   
     3    1    5 1   
     4    1    6 1   
     5    2    3 2   
     6    2    7 1   
     7    7    8 1   
     8    7   15 1   
     9    8    9 1   
    10    8   11 1   
    11    8   16 1   
    12    9   10 2   
    13    9   19 1   
    14   11   12 1   
    15   11   17 1   
    16   11   18 1   
    17   12   13 1   
    18   12   14 1   
    19   19   20 1   
    20   19   28 1   
    21   20   21 1   
    22   20   23 1   
    23   20   29 1   
    24   21   22 2   
    25   21   41 1   
    26   23   24 1   
    27   23   30 1   
    28   23   31 1   
    29   24   25 1   
    30   24   32 1   
    31   24   33 1   
    32   25   26 1   
    33   25   34 1   
    34   25   35 1   
    35   26   27 1   
    36   26   36 1   
    37   26   37 1   
    38   27   38 1   
    39   27   39 1   
    40   27   40 1   
    41   41   42 1   
    42   41   49 1   
    43   42   43 1   
    44   42   45 1   
    45   42   50 1   
    46   43   44 2   
    47   43   53 1   
    48   45   46 1   
    49   45   51 1   
    50   45   52 1   
    51   46   47 1   
    52   46   48 1   
    53   53   54 1   
    54   53   57 1   
    55   54   55 1   
    56   54   58 1   
    57   54   59 1   
    58   55   56 2   
    59   55   60 1   
    60   60   61 1   
    61   60   68 1   
    62   61   62 1   
    63   61   64 1   
    64   61   69 1   
    65   62   63 2   
    66   62   72 1   
    67   64   65 1   
    68   64   70 1   
    69   64   71 1   
    70   65   66 1   
    71   65   67 1   
    72   72   73 1   
    73   72   76 1   
    74   73   74 1   
    75   73   77 1   
    76   73   78 1   
    77   74   75 2   
    78   74   79 1   
    79   79   80 1   
    80   79   86 1   
    81   80   81 1   
    82   80   83 1   
    83   80   87 1   
    84   81   82 2   
    85   81   93 1   
    86   83   84 1   
    87   83   85 1   
    88   83   88 1   
    89   84   90 1   
    90   84   91 1   
    91   84   92 1   
    92   85   89 1   
    93   93   94 1   
    94   93  101 1   
    95   94   95 1   
    96   94   97 1   
    97   94  102 1   
    98   95   96 2   
    99   95  112 1   
   100   97   98 1   
   101   97   99 1   
   102   97  103 1   
   103   98  100 1   
   104   98  104 1   
   105   98  105 1   
   106   99  106 1   
   107   99  107 1   
   108   99  108 1   
   109  100  109 1   
   110  100  110 1   
   111  100  111 1   
   112  112  113 1   
   113  112  119 1   
   114  113  114 1   
   115  113  116 1   
   116  113  120 1   
   117  114  115 2   
   118  114  126 1   
   119  116  117 1   
   120  116  118 1   
   121  116  121 1   
   122  117  123 1   
   123  117  124 1   
   124  117  125 1   
   125  118  122 1   
   126  126  127 1   
   127  126  133 1   
   128  127  128 1   
   129  127  130 1   
   130  127  134 1   
   131  128  129 2   
   132  128  140 1   
   133  130  131 1   
   134  130  132 1   
   135  130  135 1   
   136  131  137 1   
   137  131  138 1   
   138  131  139 1   
   139  132  136 1   
   140  140  141 1   
   141  140  149 1   
   142  141  142 1   
   143  141  144 1   
   144  141  150 1   
   145  142  143 2   
   146  142  162 1   
   147  144  145 1   
   148  144  151 1   
   149  144  152 1   
   150  145  146 1   
   151  145  153 1   
   152  145  154 1   
   153  146  147 1   
   154  146  155 1   
   155  146  156 1   
   156  147  148 1   
   157  147  157 1   
   158  147  158 1   
   159  148  159 1   
   160  148  160 1   
   161  148  161 1   
   162  162  163 1   
   163  162  171 1   
   164  163  164 1   
   165  163  166 1   
   166  163  172 1   
   167  164  165 2   
   168  164  177 1   
   169  166  167 1   
   170  166  173 1   
   171  166  174 1   
   172  167  168 1   
   173  167  175 1   
   174  167  176 1   
   175  168  169 1   
   176  168  170 1   
   177  177  178 1   
   178  177  182 1   
   179  178  179 1   
   180  178  180 1   
   181  178  181 1   
   182  184  185 1   
   183  184  186 1   
   184  187  188 1   
   185  187  189 1   
   186  190  191 1   
   187  190  192 1   
@<TRIPOS>SUBSTRUCTURE
     1 MOL         1 TEMP              0 ****  ****    0 ROOT
