@<TRIPOS>MOLECULE
MOL
  178   175     1     0     0
SMALL
resp


@<TRIPOS>ATOM
      1 C1          6.0260   -1.9720    3.9910 c3        1 MOL     -0.409781
      2 C2          6.9570   -0.9340    3.3660 c         1 MOL      0.676034
      3 O1          6.5210   -0.0170    2.6780 o         1 MOL     -0.623652
      4 H1          5.3180   -1.4730    4.6530 hc        1 MOL      0.113081
      5 H2          5.4800   -2.4930    3.2040 hc        1 MOL      0.113081
      6 H3          6.6130   -2.6910    4.5630 hc        1 MOL      0.113081
      7 N1          8.2710   -1.0030    3.4570 n         1 MOL     -0.471241
      8 C3          9.2040   -0.0170    2.9000 c3        1 MOL      0.134519
      9 C4          9.1540    0.0000    1.3490 c         1 MOL      0.747082
     10 O2          8.9220   -1.0290    0.6550 o         1 MOL     -0.526280
     11 C5         10.5770   -0.3290    3.5130 c3        1 MOL     -0.290218
     12 C6         11.0530   -1.6860    2.9290 c         1 MOL      0.650752
     13 O3         11.7570   -1.7070    1.8870 o         1 MOL     -0.679854
     14 O4         10.6220   -2.7220    3.5080 o         1 MOL     -0.679854
     15 H4          8.7400   -1.7840    3.8940 hn        1 MOL      0.257529
     16 H5          8.9110    0.9540    3.3060 h1        1 MOL      0.011895
     17 H6         10.4630   -0.3140    4.5980 hc        1 MOL      0.040748
     18 H7         11.2530    0.4340    3.1170 hc        1 MOL      0.040748
     19 N2          9.3190    1.1770    0.7500 n         1 MOL     -0.858222
     20 C7          9.2030    1.3490   -0.7340 c3        1 MOL      0.586890
     21 C8          7.7630    1.3070   -1.2770 c         1 MOL      0.221619
     22 O5          7.6380    1.7200   -2.4390 o         1 MOL     -0.533793
     23 C9         10.0830    2.5150   -1.0860 c3        1 MOL     -0.393501
     24 H8          9.7580    1.9630    1.2040 hn        1 MOL      0.350892
     25 H9          9.6510    0.4650   -1.1770 h1        1 MOL      0.008251
     26 H10        11.1320    2.2270   -1.0220 hc        1 MOL      0.085411
     27 H11        10.0120    2.7190   -2.1540 hc        1 MOL      0.085411
     28 H12         9.8480    3.3310   -0.4070 hc        1 MOL      0.085411
     29 N3          6.7640    0.8580   -0.5810 n         1 MOL     -0.314940
     30 C10         5.3560    0.5980   -1.0700 c3        1 MOL      0.420824
     31 C11         4.7780    1.8510   -1.7050 c         1 MOL      0.363071
     32 O6          4.2910    1.7830   -2.8060 o         1 MOL     -0.471337
     33 C12         5.3190   -0.6510   -1.9980 c3        1 MOL     -0.192845
     34 C13         3.8930   -1.0120   -2.3720 c         1 MOL      0.695910
     35 O7          3.7460   -1.6070   -3.4210 o         1 MOL     -0.723613
     36 O8          2.8800   -0.6980   -1.6520 o         1 MOL     -0.723613
     37 H13         6.9820    0.5870    0.3630 hn        1 MOL      0.180108
     38 H14         4.7330    0.3910   -0.2060 h1        1 MOL     -0.038279
     39 H15         5.8180   -1.4220   -1.4190 hc        1 MOL      0.050152
     40 H16         5.8110   -0.3500   -2.9200 hc        1 MOL      0.050152
     41 N4          4.6340    2.9160   -0.9510 n         1 MOL     -0.268441
     42 C14         4.3280    4.2670   -1.4840 c3        1 MOL     -0.067261
     43 C15         2.8990    4.5290   -2.0170 c         1 MOL      0.514995
     44 O9          2.6730    5.7030   -2.3530 o         1 MOL     -0.573061
     45 H17         4.9190    2.8870    0.0150 hn        1 MOL      0.225631
     46 H18         5.0860    4.5490   -2.2150 h1        1 MOL      0.072257
     47 H19         4.4890    4.9210   -0.6250 h1        1 MOL      0.072257
     48 N5          1.9340    3.6180   -1.9090 n         1 MOL     -0.294813
     49 C16         0.6130    3.7330   -2.4470 c3        1 MOL      0.040478
     50 C17        -0.2420    4.7200   -1.6400 c         1 MOL      0.623531
     51 O10        -0.1080    4.8620   -0.4540 o         1 MOL     -0.515222
     52 C18         0.0150    2.3080   -2.6390 c3        1 MOL     -0.349006
     53 C19         0.8790    1.3630   -3.4800 c         1 MOL      0.867479
     54 N6          1.6770    1.8220   -4.4080 n         1 MOL     -0.932241
     55 O11         0.8080    0.1550   -3.3410 o         1 MOL     -0.690220
     56 H20         2.1350    2.8770   -1.2590 hn        1 MOL      0.229145
     57 H21         0.7170    4.2350   -3.4100 h1        1 MOL     -0.024278
     58 H22        -0.9080    2.5420   -3.1720 hc        1 MOL      0.133588
     59 H23        -0.1880    1.8550   -1.6700 hc        1 MOL      0.133588
     60 H24         1.8190    2.7970   -4.6390 hn        1 MOL      0.404411
     61 H25         2.3970    1.2400   -4.8200 hn        1 MOL      0.404411
     62 N7         -1.2000    5.3600   -2.3020 n         1 MOL     -0.442962
     63 C20        -2.2040    6.2840   -1.6400 c3        1 MOL     -0.310295
     64 C21        -3.1740    5.6130   -0.7170 c         1 MOL      0.551464
     65 O12        -3.7730    4.6360   -1.0980 o         1 MOL     -0.432060
     66 H26        -1.2510    5.1880   -3.3010 hn        1 MOL      0.314452
     67 H27        -2.7460    6.8350   -2.4010 h1        1 MOL      0.144704
     68 H28        -1.5980    7.0510   -1.1450 h1        1 MOL      0.144704
     69 N8         -3.4010    6.1300    0.4830 n         1 MOL     -0.290131
     70 C22        -4.6550    5.7840    1.2600 c3        1 MOL     -0.482192
     71 C23        -4.5990    4.3770    1.9340 c         1 MOL      0.653016
     72 O13        -5.6480    3.7110    2.0490 o         1 MOL     -0.543691
     73 C24        -5.0650    6.7590    2.3640 c3        1 MOL      0.573621
     74 C25        -4.0050    6.9460    3.4060 c3        1 MOL     -0.317797
     75 O14        -5.1990    8.0290    1.8000 oh        1 MOL     -0.678039
     76 H29        -2.8580    6.9310    0.7860 hn        1 MOL      0.240844
     77 H30        -5.5230    5.7020    0.6150 h1        1 MOL      0.197114
     78 H31        -5.9840    6.3880    2.8130 h1        1 MOL      0.022474
     79 H32        -4.4290    8.3030    1.3000 ho        1 MOL      0.396644
     80 H33        -2.9960    6.9970    2.9850 hc        1 MOL      0.069664
     81 H34        -4.2520    7.8220    3.9960 hc        1 MOL      0.069664
     82 H35        -3.9860    6.1060    4.0890 hc        1 MOL      0.069664
     83 N9         -3.3620    4.0430    2.3460 n         1 MOL     -0.425119
     84 C26        -3.1170    2.6760    2.7420 c3        1 MOL     -0.127269
     85 C27        -2.3480    1.9510    1.6110 c         1 MOL      0.585536
     86 O15        -1.4040    2.4240    0.9910 o         1 MOL     -0.540808
     87 C28        -2.1810    2.5980    3.9860 c3        1 MOL      0.221417
     88 C29        -2.8940    3.2360    5.2880 c3        1 MOL      0.213738
     89 C30        -1.7030    1.1460    4.3170 c3        1 MOL     -0.252387
     90 C31        -4.3310    2.7850    5.6120 c3        1 MOL     -0.183823
     91 H36        -2.5950    4.5990    2.0110 hn        1 MOL      0.276939
     92 H37        -4.0410    2.1160    2.8940 h1        1 MOL      0.092229
     93 H38        -1.2370    3.1380    3.9030 hc        1 MOL     -0.006529
     94 H39        -2.8950    4.3130    5.1240 hc        1 MOL     -0.067661
     95 H40        -2.2020    3.1270    6.1210 hc        1 MOL     -0.067661
     96 H41        -1.4360    1.1310    5.3650 hc        1 MOL      0.054487
     97 H42        -2.4840    0.4280    4.0420 hc        1 MOL      0.054487
     98 H43        -0.8130    1.0310    3.7000 hc        1 MOL      0.054487
     99 H44        -4.9760    3.0420    4.7720 hc        1 MOL      0.026035
    100 H45        -4.2930    1.7000    5.6970 hc        1 MOL      0.026035
    101 H46        -4.6130    3.3280    6.5170 hc        1 MOL      0.026035
    102 N10        -2.7860    0.7870    1.4290 n         1 MOL     -0.396482
    103 C32        -2.3460   -0.3270    0.4550 c3        1 MOL      0.030861
    104 C33        -3.4940   -1.2740    0.1300 c         1 MOL      0.612964
    105 O16        -3.3120   -2.4940    0.1570 o         1 MOL     -0.511183
    106 C34        -1.1070   -1.0040    0.8840 c3        1 MOL      0.102609
    107 C35        -0.4110   -1.6580   -0.2570 c         1 MOL      0.714915
    108 O17        -0.7480   -1.3910   -1.4190 o         1 MOL     -0.753207
    109 O18         0.5990   -2.3220   -0.0250 o         1 MOL     -0.753207
    110 H47        -3.5330    0.4930    2.0490 hn        1 MOL      0.251544
    111 H48        -2.1110    0.1900   -0.4770 h1        1 MOL      0.025337
    112 H49        -1.3760   -1.7400    1.6480 hc        1 MOL     -0.018357
    113 H50        -0.4460   -0.2770    1.3500 hc        1 MOL     -0.018357
    114 N11        -4.6700   -0.6490   -0.1330 n         1 MOL     -0.604085
    115 C36        -5.8560   -1.4570   -0.5300 c3        1 MOL      0.405672
    116 C37        -6.1140   -2.7010    0.3030 c         1 MOL      0.112987
    117 O19        -6.2580   -2.6170    1.5330 o         1 MOL     -0.493447
    118 C38        -7.1170   -0.5920   -0.3300 c3        1 MOL     -0.176474
    119 C39        -7.2210    0.6250   -1.2310 ca        1 MOL      0.077271
    120 C40        -6.7420    1.8610   -0.8040 ca        1 MOL     -0.144233
    121 C41        -7.8530    0.5080   -2.5460 ca        1 MOL     -0.144233
    122 C42        -7.0200    3.0230   -1.5600 ca        1 MOL     -0.120198
    123 C43        -8.1590    1.6840   -3.2340 ca        1 MOL     -0.120198
    124 C44        -7.7540    2.9470   -2.7550 ca        1 MOL     -0.101658
    125 H51        -4.6620    0.3550   -0.0670 hn        1 MOL      0.308278
    126 H52        -5.8190   -1.7380   -1.5770 h1        1 MOL     -0.052168
    127 H53        -7.1340   -0.2790    0.7190 hc        1 MOL      0.080736
    128 H54        -8.0450   -1.1230   -0.5270 hc        1 MOL      0.080736
    129 H55        -6.2630    1.9450    0.1610 ha        1 MOL      0.099428
    130 H56        -8.0960   -0.4780   -2.9250 ha        1 MOL      0.099428
    131 H57        -6.5670    3.9370   -1.2000 ha        1 MOL      0.095803
    132 H58        -8.7580    1.6500   -4.1300 ha        1 MOL      0.095803
    133 H59        -8.0530    3.7800   -3.3750 ha        1 MOL      0.100338
    134 N12        -6.0650   -3.9420   -0.2640 n         1 MOL      0.060980
    135 C45        -6.3260   -5.1580    0.5020 c3        1 MOL      0.155323
    136 C46        -5.0280   -5.6360    1.2180 c         1 MOL      0.334608
    137 O20        -5.1310   -6.3380    2.2380 o         1 MOL     -0.548237
    138 C47        -6.6980   -6.1750   -0.5370 c3        1 MOL     -0.287137
    139 C48        -6.1670   -5.6570   -1.9020 c3        1 MOL     -0.030478
    140 C49        -5.9610   -4.1920   -1.7070 c3        1 MOL     -0.184266
    141 H60        -7.1150   -5.1180    1.2530 h1        1 MOL      0.046230
    142 H61        -6.2180   -7.0950   -0.2100 hc        1 MOL      0.093404
    143 H62        -7.7740   -6.2630   -0.3670 hc        1 MOL      0.093404
    144 H63        -5.1590   -6.0330   -2.0490 hc        1 MOL      0.049595
    145 H64        -6.7650   -5.9590   -2.7630 hc        1 MOL      0.049595
    146 H65        -4.9530   -3.9130   -2.0410 h1        1 MOL      0.086969
    147 H66        -6.7470   -3.6260   -2.1950 h1        1 MOL      0.086969
    148 N13        -3.8370   -5.2960    0.7260 n         1 MOL     -0.122984
    149 C50        -2.6220   -5.7740    1.4090 c3        1 MOL     -0.406235
    150 C51        -2.3300   -5.4780    2.8630 c         1 MOL      0.505704
    151 O21        -1.4040   -6.0510    3.4730 o         1 MOL     -0.537852
    152 C52        -1.4280   -5.3510    0.5880 c3        1 MOL      0.377746
    153 C53        -1.4140   -5.6970   -0.8600 c3        1 MOL     -0.273334
    154 C54         0.0080   -5.5430   -1.3960 c         1 MOL      0.689069
    155 O22         0.8260   -6.4190   -1.1790 o         1 MOL     -0.682320
    156 O23         0.1850   -4.6240   -2.2180 o         1 MOL     -0.682320
    157 H67        -3.7330   -4.5970    0.0030 hn        1 MOL      0.277702
    158 H68        -2.6720   -6.8650    1.3650 h1        1 MOL      0.169446
    159 H69        -0.5370   -5.7910    1.0440 hc        1 MOL     -0.042443
    160 H70        -1.3650   -4.2740    0.7310 hc        1 MOL     -0.042443
    161 H71        -2.0580   -5.0260   -1.4260 hc        1 MOL      0.001051
    162 H72        -1.7900   -6.7150   -0.9930 hc        1 MOL      0.001051
    163 N14        -3.0870   -4.4900    3.3780 n         1 MOL     -0.141094
    164 C55        -3.0210   -4.0390    4.7960 c3        1 MOL     -0.314628
    165 H73        -4.0280   -3.8240    5.1550 h1        1 MOL      0.113639
    166 H74        -2.5780   -4.8250    5.4070 h1        1 MOL      0.113639
    167 H75        -2.4120   -3.1380    4.8640 h1        1 MOL      0.113639
    168 H76        -3.7720   -4.0890    2.7570 hn        1 MOL      0.219838
    169 Ca1         1.2240   -2.3770   -2.7840 Ca        1 MOL      1.770844
    170 O24        -0.6280   -2.5750   -4.6030 oh        1 MOL     -0.830654
    171 H77        -0.2740   -2.3810   -5.4690 ho        1 MOL      0.403363
    172 H78        -1.5730   -2.5390   -4.7100 ho        1 MOL      0.403363
    173 O25         3.1840   -4.1020   -1.9420 oh        1 MOL     -0.830654
    174 H79         3.2740   -5.0150   -1.6780 ho        1 MOL      0.403363
    175 H80         3.7440   -3.6240   -1.3340 ho        1 MOL      0.403363
    176 O26         1.7380   -4.3090   -4.7580 oh        1 MOL     -0.830654
    177 H81         1.9460   -5.1300   -4.2920 ho        1 MOL      0.403363
    178 H82         1.1950   -4.5790   -5.4930 ho        1 MOL      0.403363
@<TRIPOS>BOND
     1    1    2 1   
     2    1    4 1   
     3    1    5 1   
     4    1    6 1   
     5    2    3 2   
     6    2    7 1   
     7    7    8 1   
     8    7   15 1   
     9    8    9 1   
    10    8   11 1   
    11    8   16 1   
    12    9   10 2   
    13    9   19 1   
    14   11   12 1   
    15   11   17 1   
    16   11   18 1   
    17   12   13 1   
    18   12   14 1   
    19   19   20 1   
    20   19   24 1   
    21   20   21 1   
    22   20   23 1   
    23   20   25 1   
    24   21   22 2   
    25   21   29 1   
    26   23   26 1   
    27   23   27 1   
    28   23   28 1   
    29   29   30 1   
    30   29   37 1   
    31   30   31 1   
    32   30   33 1   
    33   30   38 1   
    34   31   32 2   
    35   31   41 1   
    36   33   34 1   
    37   33   39 1   
    38   33   40 1   
    39   34   35 1   
    40   34   36 1   
    41   41   42 1   
    42   41   45 1   
    43   42   43 1   
    44   42   46 1   
    45   42   47 1   
    46   43   44 2   
    47   43   48 1   
    48   48   49 1   
    49   48   56 1   
    50   49   50 1   
    51   49   52 1   
    52   49   57 1   
    53   50   51 2   
    54   50   62 1   
    55   52   53 1   
    56   52   58 1   
    57   52   59 1   
    58   53   54 1   
    59   53   55 2   
    60   54   60 1   
    61   54   61 1   
    62   62   63 1   
    63   62   66 1   
    64   63   64 1   
    65   63   67 1   
    66   63   68 1   
    67   64   65 2   
    68   64   69 1   
    69   69   70 1   
    70   69   76 1   
    71   70   71 1   
    72   70   73 1   
    73   70   77 1   
    74   71   72 2   
    75   71   83 1   
    76   73   74 1   
    77   73   75 1   
    78   73   78 1   
    79   74   80 1   
    80   74   81 1   
    81   74   82 1   
    82   75   79 1   
    83   83   84 1   
    84   83   91 1   
    85   84   85 1   
    86   84   87 1   
    87   84   92 1   
    88   85   86 2   
    89   85  102 1   
    90   87   88 1   
    91   87   89 1   
    92   87   93 1   
    93   88   90 1   
    94   88   94 1   
    95   88   95 1   
    96   89   96 1   
    97   89   97 1   
    98   89   98 1   
    99   90   99 1   
   100   90  100 1   
   101   90  101 1   
   102  102  103 1   
   103  102  110 1   
   104  103  104 1   
   105  103  106 1   
   106  103  111 1   
   107  104  105 2   
   108  104  114 1   
   109  106  107 1   
   110  106  112 1   
   111  106  113 1   
   112  107  108 1   
   113  107  109 1   
   114  114  115 1   
   115  114  125 1   
   116  115  116 1   
   117  115  118 1   
   118  115  126 1   
   119  116  117 2   
   120  116  134 1   
   121  118  119 1   
   122  118  127 1   
   123  118  128 1   
   124  119  120 ar  
   125  119  121 ar  
   126  120  122 ar  
   127  120  129 1   
   128  121  123 ar  
   129  121  130 1   
   130  122  124 ar  
   131  122  131 1   
   132  123  124 ar  
   133  123  132 1   
   134  124  133 1   
   135  134  135 1   
   136  134  140 1   
   137  135  136 1   
   138  135  138 1   
   139  135  141 1   
   140  136  137 2   
   141  136  148 1   
   142  138  139 1   
   143  138  142 1   
   144  138  143 1   
   145  139  140 1   
   146  139  144 1   
   147  139  145 1   
   148  140  146 1   
   149  140  147 1   
   150  148  149 1   
   151  148  157 1   
   152  149  150 1   
   153  149  152 1   
   154  149  158 1   
   155  150  151 2   
   156  150  163 1   
   157  152  153 1   
   158  152  159 1   
   159  152  160 1   
   160  153  154 1   
   161  153  161 1   
   162  153  162 1   
   163  154  155 1   
   164  154  156 1   
   165  163  164 1   
   166  163  168 1   
   167  164  165 1   
   168  164  166 1   
   169  164  167 1   
   170  170  171 1   
   171  170  172 1   
   172  173  174 1   
   173  173  175 1   
   174  176  177 1   
   175  176  178 1   
@<TRIPOS>SUBSTRUCTURE
     1 MOL         1 TEMP              0 ****  ****    0 ROOT
