@<TRIPOS>MOLECULE
MOL
  192   187     1     0     0
SMALL
resp


@<TRIPOS>ATOM
      1 C1          6.2900    1.0460    5.5000 c3        1 MOL     -0.203015
      2 C2          5.5090    0.9060    4.1910 c         1 MOL      0.598514
      3 O1          5.1250    1.9330    3.6540 o         1 MOL     -0.552981
      4 H1          7.2790    0.6030    5.3820 hc        1 MOL      0.049199
      5 H2          6.3930    2.1010    5.7520 hc        1 MOL      0.049199
      6 H3          5.7550    0.5320    6.3000 hc        1 MOL      0.049199
      7 N1          5.5950   -0.2310    3.5610 n         1 MOL     -0.282504
      8 C3          5.3260   -0.4570    2.1220 c3        1 MOL      0.045859
      9 C4          3.8140   -0.3340    1.6010 c         1 MOL     -0.047102
     10 O2          3.5170   -0.7150    0.4700 o         1 MOL     -0.176913
     11 C5          6.0180   -1.7970    1.7900 c3        1 MOL     -0.255482
     12 C6          5.7550   -2.9460    2.7730 c         1 MOL      0.707039
     13 O3          6.5160   -2.8990    3.7680 o         1 MOL     -0.702349
     14 O4          4.8810   -3.8270    2.5890 o         1 MOL     -0.702349
     15 H4          5.9440   -0.9690    4.1480 hn        1 MOL      0.168857
     16 H5          5.8750    0.3350    1.5990 h1        1 MOL      0.104599
     17 H6          7.0920   -1.6790    1.6470 hc        1 MOL      0.083802
     18 H7          5.6040   -1.9560    0.7950 hc        1 MOL      0.083802
     19 N2          2.8730    0.0580    2.5080 n         1 MOL      0.055832
     20 C7          1.4610   -0.1770    2.4260 c3        1 MOL     -0.015261
     21 C8          0.7900    1.2160    2.4180 c         1 MOL      0.253838
     22 O5          1.1450    2.0580    3.2440 o         1 MOL     -0.494052
     23 C9          1.0730   -1.0390    3.6820 c3        1 MOL      0.022070
     24 C10         1.8350   -2.3590    3.7590 c3        1 MOL      0.292983
     25 C11         1.1990   -3.2970    4.7920 c3        1 MOL     -0.066059
     26 C12         1.1820   -2.7420    6.2110 c3        1 MOL     -0.130738
     27 N3          2.5440   -2.4880    6.7570 n4        1 MOL     -0.361221
     28 H8          3.2740    0.5220    3.3090 hn        1 MOL      0.121560
     29 H9          1.1930   -0.7380    1.5370 h1        1 MOL      0.094373
     30 H10         0.0190   -1.3310    3.6690 hc        1 MOL     -0.028345
     31 H11         1.2620   -0.4460    4.5790 hc        1 MOL     -0.028345
     32 H12         2.8390   -2.0530    4.0510 hc        1 MOL     -0.086248
     33 H13         1.7970   -2.8860    2.7940 hc        1 MOL     -0.086248
     34 H14         1.7790   -4.2150    4.8410 hc        1 MOL      0.071993
     35 H15         0.1920   -3.6600    4.5870 hc        1 MOL      0.071993
     36 H16         0.5560   -3.4310    6.7790 hx        1 MOL      0.133073
     37 H17         0.6370   -1.7970    6.2090 hx        1 MOL      0.133073
     38 H18         2.5500   -2.1660    7.7130 hn        1 MOL      0.330042
     39 H19         3.1700   -3.2660    6.6280 hn        1 MOL      0.330042
     40 H20         2.9910   -1.7470    6.2510 hn        1 MOL      0.330042
     41 N4         -0.1980    1.5010    1.5880 n         1 MOL      0.188445
     42 C13        -0.9360    0.7200    0.5690 c3        1 MOL     -0.656268
     43 C14        -1.3730   -0.7170    0.9740 c         1 MOL      0.617358
     44 O6         -0.7450   -1.7070    0.5080 o         1 MOL     -0.521186
     45 C15        -0.3650    0.7810   -0.9090 c3        1 MOL     -0.222478
     46 C16        -0.2640    2.2160   -1.4590 c         1 MOL      0.713327
     47 O7          0.1810    2.2720   -2.6120 o         1 MOL     -0.704711
     48 O8         -0.5860    3.2370   -0.7760 o         1 MOL     -0.704711
     49 H21        -0.4820    2.4680    1.7020 hn        1 MOL      0.057016
     50 H22        -1.8510    1.2880    0.5000 h1        1 MOL      0.134600
     51 H23        -1.0450    0.1710   -1.5160 hc        1 MOL      0.157197
     52 H24         0.5950    0.2670   -0.9160 hc        1 MOL      0.157197
     53 N5         -2.2500   -0.9010    1.8760 n         1 MOL     -0.403236
     54 C17        -3.1720    0.1160    2.3790 c3        1 MOL      0.225006
     55 C18        -4.2650   -0.4660    3.2790 c         1 MOL      0.432933
     56 O9         -4.0370   -1.5410    3.8170 o         1 MOL     -0.550769
     57 H25        -2.4310   -1.8730    2.0820 hn        1 MOL      0.269430
     58 H26        -3.6910    0.5130    1.5170 h1        1 MOL      0.011623
     59 H27        -2.7670    0.9550    2.9460 h1        1 MOL      0.011623
     60 N6         -5.4040    0.1450    3.4930 n         1 MOL     -0.327616
     61 C19        -5.8880    1.4340    2.9870 c3        1 MOL      0.035590
     62 C20        -7.0480    1.2800    1.9840 c         1 MOL      0.383301
     63 O10        -7.8050    0.3270    1.9940 o         1 MOL     -0.472067
     64 C21        -6.3160    2.2880    4.2050 c3        1 MOL     -0.234395
     65 C22        -7.4130    1.7060    5.1190 c         1 MOL      0.770918
     66 O11        -8.1440    2.5080    5.7760 o         1 MOL     -0.663472
     67 O12        -7.3920    0.5310    5.4610 o         1 MOL     -0.663472
     68 H28        -6.0400   -0.2390    4.1750 hn        1 MOL      0.297694
     69 H29        -5.1440    2.0680    2.4960 h1        1 MOL      0.011973
     70 H30        -6.6900    3.1550    3.6770 hc        1 MOL      0.030926
     71 H31        -5.5440    2.5790    4.9170 hc        1 MOL      0.030926
     72 N7         -7.0300    2.1070    0.9630 n         1 MOL     -0.118742
     73 C23        -7.9850    2.1240   -0.1590 c3        1 MOL     -0.276720
     74 C24        -7.6630    1.1000   -1.2670 c         1 MOL      0.549992
     75 O13        -8.5340    0.5390   -1.8760 o         1 MOL     -0.513449
     76 H32        -6.4240    2.8600    1.2410 hn        1 MOL      0.178279
     77 H33        -8.0070    3.1700   -0.4650 h1        1 MOL      0.132699
     78 H34        -8.9810    1.9210    0.2470 h1        1 MOL      0.132699
     79 N8         -6.3540    0.8800   -1.5220 n         1 MOL     -0.356712
     80 C25        -5.8590   -0.2450   -2.3040 c3        1 MOL      0.164215
     81 C26        -4.7890   -0.9430   -1.4810 c         1 MOL      0.404537
     82 O14        -3.9720   -0.3040   -0.7920 o         1 MOL     -0.420040
     83 C27        -5.3320    0.1150   -3.7280 c3        1 MOL      0.240175
     84 C28        -6.1210    0.9830   -4.6560 c3        1 MOL     -0.500928
     85 O15        -5.1130   -1.1010   -4.4610 oh        1 MOL     -0.588234
     86 H35        -5.6030    1.3640   -1.0350 hn        1 MOL      0.131346
     87 H36        -6.6950   -0.9190   -2.4260 h1        1 MOL      0.077113
     88 H37        -4.3710    0.5930   -3.5420 h1        1 MOL      0.010322
     89 H38        -4.7460   -0.7510   -5.2760 ho        1 MOL      0.381543
     90 H39        -6.1880    1.9850   -4.2190 hc        1 MOL      0.140081
     91 H40        -5.7430    1.0550   -5.6810 hc        1 MOL      0.140081
     92 H41        -7.0830    0.4980   -4.7020 hc        1 MOL      0.140081
     93 N9         -4.7980   -2.2550   -1.5580 n         1 MOL     -0.323031
     94 C29        -3.8200   -3.1270   -0.8050 c3        1 MOL     -0.484570
     95 C30        -2.7070   -3.6710   -1.7010 c         1 MOL      0.366381
     96 O16        -2.0180   -4.6590   -1.3510 o         1 MOL     -0.505779
     97 C31        -4.4870   -4.1190    0.2050 c3        1 MOL      0.361417
     98 C32        -5.1190   -5.3320   -0.5210 c3        1 MOL     -0.020183
     99 C33        -5.5460   -3.3680    1.1090 c3        1 MOL     -0.404492
    100 C34        -5.6770   -6.4990    0.3060 c3        1 MOL     -0.294553
    101 H42        -5.3720   -2.7540   -2.2240 hn        1 MOL      0.282419
    102 H43        -3.2170   -2.4170   -0.2560 h1        1 MOL      0.271400
    103 H44        -3.7080   -4.5140    0.8530 hc        1 MOL      0.003598
    104 H45        -4.2900   -5.8160   -1.0340 hc        1 MOL      0.044924
    105 H46        -5.9640   -5.1070   -1.1730 hc        1 MOL      0.044924
    106 H47        -5.2110   -2.3550    1.3430 hc        1 MOL      0.108679
    107 H48        -6.4320   -3.2870    0.4830 hc        1 MOL      0.108679
    108 H49        -5.7230   -4.0270    1.9620 hc        1 MOL      0.108679
    109 H50        -6.7210   -6.3380    0.5900 hc        1 MOL      0.073314
    110 H51        -5.6760   -7.4230   -0.2740 hc        1 MOL      0.073314
    111 H52        -5.0050   -6.5370    1.1520 hc        1 MOL      0.073314
    112 N10        -2.3730   -3.0420   -2.7890 n         1 MOL     -0.011176
    113 C35        -1.4000   -3.5430   -3.7610 c3        1 MOL     -0.114451
    114 C36         0.0040   -3.5100   -3.3220 c         1 MOL      0.423220
    115 O17         0.7810   -4.1170   -4.0470 o         1 MOL     -0.517852
    116 C37        -1.6760   -2.7700   -5.0830 c3        1 MOL      0.270283
    117 C38        -1.0320   -1.3390   -5.1680 c3        1 MOL     -0.166306
    118 O18        -2.9730   -2.7800   -5.4930 oh        1 MOL     -0.607497
    119 H53        -2.9620   -2.2930   -3.1050 hn        1 MOL      0.157900
    120 H54        -1.5060   -4.6170   -3.8870 h1        1 MOL      0.119127
    121 H55        -1.0690   -3.3060   -5.8110 h1        1 MOL      0.025309
    122 H56        -3.0800   -2.1180   -6.1750 ho        1 MOL      0.395884
    123 H57        -1.7830   -0.6960   -4.7140 hc        1 MOL      0.043717
    124 H58        -0.1080   -1.1150   -4.6260 hc        1 MOL      0.043717
    125 H59        -0.9300   -1.0670   -6.2180 hc        1 MOL      0.043717
    126 N11         0.4150   -2.7660   -2.2540 n         1 MOL     -0.192489
    127 C39         1.8070   -2.3960   -1.9780 c3        1 MOL     -0.056022
    128 C40         2.6760   -1.7960   -3.0870 c         1 MOL      0.467963
    129 O19         2.4470   -1.9610   -4.3250 o         1 MOL     -0.491169
    130 C41         2.5050   -3.6540   -1.2960 c3        1 MOL      0.606090
    131 C42         1.5690   -4.3760   -0.2860 c3        1 MOL     -0.331949
    132 O20         3.6840   -3.2880   -0.6460 oh        1 MOL     -0.749456
    133 H60        -0.2080   -2.3530   -1.5740 hn        1 MOL      0.096196
    134 H61         1.6660   -1.6240   -1.2240 h1        1 MOL     -0.035633
    135 H62         2.7610   -4.4030   -2.0470 h1        1 MOL     -0.030624
    136 H63         3.5640   -2.5680   -0.0260 ho        1 MOL      0.407417
    137 H64         2.2470   -4.9840    0.3110 hc        1 MOL      0.081123
    138 H65         1.0800   -3.6470    0.3570 hc        1 MOL      0.081123
    139 H66         0.8760   -5.0840   -0.7500 hc        1 MOL      0.081123
    140 N12         3.6110   -0.9790   -2.5860 n         1 MOL     -0.421848
    141 C43         4.5790   -0.1330   -3.2560 c3        1 MOL      0.178027
    142 C44         4.6380    1.2890   -2.7690 c         1 MOL      0.592804
    143 O21         5.1630    2.1630   -3.4810 o         1 MOL     -0.642481
    144 C45         5.9680   -0.8270   -3.1890 c3        1 MOL     -0.147925
    145 C46         6.4130   -1.1250   -1.7530 c3        1 MOL     -0.102699
    146 C47         7.6370   -2.0720   -1.4310 c3        1 MOL     -0.012557
    147 C48         7.4120   -3.5560   -1.6930 c3        1 MOL      0.047732
    148 N13         8.7210   -4.1660   -1.8530 n4        1 MOL     -0.349572
    149 H67         3.6330   -0.9650   -1.5750 hn        1 MOL      0.222942
    150 H68         4.2770   -0.1190   -4.3080 h1        1 MOL      0.048803
    151 H69         6.6710   -0.2200   -3.7570 hc        1 MOL      0.040487
    152 H70         5.8940   -1.8450   -3.5920 hc        1 MOL      0.040487
    153 H71         5.5550   -1.5300   -1.2210 hc        1 MOL      0.078748
    154 H72         6.6940   -0.1920   -1.2630 hc        1 MOL      0.078748
    155 H73         8.0540   -1.9340   -0.4350 hc        1 MOL      0.017336
    156 H74         8.5450   -1.7420   -1.9500 hc        1 MOL      0.017336
    157 H75         6.8970   -3.5240   -2.6490 hx        1 MOL      0.086614
    158 H76         6.8130   -4.0140   -0.8980 hx        1 MOL      0.086614
    159 H77         9.3390   -3.8910   -1.1100 hn        1 MOL      0.322751
    160 H78         8.6540   -5.1790   -1.7990 hn        1 MOL      0.322751
    161 H79         9.1430   -3.8920   -2.7260 hn        1 MOL      0.322751
    162 N14         4.3220    1.5620   -1.5350 n         1 MOL     -0.175438
    163 C49         4.1960    2.9230   -1.0180 c3        1 MOL     -0.065351
    164 C50         5.5350    3.4930   -0.5810 c         1 MOL      0.445693
    165 O22         6.2750    2.9690    0.2610 o         1 MOL     -0.561054
    166 C51         3.2520    2.9620    0.1880 c3        1 MOL      0.951583
    167 C52         3.0920    4.3490    0.7110 c3        1 MOL     -1.310404
    168 C53         2.6300    5.4250   -0.2370 c         1 MOL      1.306837
    169 O23         3.4510    5.9480   -1.0590 o         1 MOL     -0.903581
    170 O24         1.4880    5.9960    0.0060 o         1 MOL     -0.903581
    171 H80         3.9220    0.8290   -0.9640 hn        1 MOL     -0.011766
    172 H81         3.8890    3.6290   -1.7990 h1        1 MOL      0.021826
    173 H82         3.5390    2.2010    0.9050 hc        1 MOL     -0.187360
    174 H83         2.2850    2.6480   -0.1820 hc        1 MOL     -0.187360
    175 H84         4.0400    4.6630    1.1490 hc        1 MOL      0.292255
    176 H85         2.4130    4.1750    1.5350 hc        1 MOL      0.292255
    177 N15         5.9920    4.5310   -1.2830 n         1 MOL     -0.289583
    178 C54         7.2830    5.1690   -1.0790 c3        1 MOL     -0.186702
    179 H86         7.7490    5.3610   -2.0450 h1        1 MOL      0.090218
    180 H87         7.1440    6.1110   -0.5490 h1        1 MOL      0.090218
    181 H88         7.9250    4.5120   -0.4910 h1        1 MOL      0.090218
    182 H89         5.2410    5.0040   -1.7680 hn        1 MOL      0.399388
    183 Ca1        -1.0150    5.7020   -0.5510 Ca        1 MOL      1.660518
    184 O25        -1.8820    8.0830   -2.4310 oh        1 MOL     -0.885374
    185 H90        -1.3340    8.8100   -2.1170 ho        1 MOL      0.436487
    186 H91        -2.5700    8.5020   -2.9350 ho        1 MOL      0.436487
    187 O26        -2.9700    5.3310   -2.3970 oh        1 MOL     -0.885374
    188 H92        -2.8030    4.5770   -2.9610 ho        1 MOL      0.436487
    189 H93        -3.5650    5.8820   -2.8980 ho        1 MOL      0.436487
    190 O27         0.2800    5.2800   -2.7460 oh        1 MOL     -0.885374
    191 H94         0.3960    5.8960   -3.4690 ho        1 MOL      0.436487
    192 H95         0.4280    4.4190   -3.1390 ho        1 MOL      0.436487
@<TRIPOS>BOND
     1    1    2 1   
     2    1    4 1   
     3    1    5 1   
     4    1    6 1   
     5    2    3 2   
     6    2    7 1   
     7    7    8 1   
     8    7   15 1   
     9    8    9 1   
    10    8   11 1   
    11    8   16 1   
    12    9   10 2   
    13    9   19 1   
    14   11   12 1   
    15   11   17 1   
    16   11   18 1   
    17   12   13 1   
    18   12   14 1   
    19   19   20 1   
    20   19   28 1   
    21   20   21 1   
    22   20   23 1   
    23   20   29 1   
    24   21   22 2   
    25   21   41 1   
    26   23   24 1   
    27   23   30 1   
    28   23   31 1   
    29   24   25 1   
    30   24   32 1   
    31   24   33 1   
    32   25   26 1   
    33   25   34 1   
    34   25   35 1   
    35   26   27 1   
    36   26   36 1   
    37   26   37 1   
    38   27   38 1   
    39   27   39 1   
    40   27   40 1   
    41   41   42 1   
    42   41   49 1   
    43   42   43 1   
    44   42   45 1   
    45   42   50 1   
    46   43   44 2   
    47   43   53 1   
    48   45   46 1   
    49   45   51 1   
    50   45   52 1   
    51   46   47 1   
    52   46   48 1   
    53   53   54 1   
    54   53   57 1   
    55   54   55 1   
    56   54   58 1   
    57   54   59 1   
    58   55   56 2   
    59   55   60 1   
    60   60   61 1   
    61   60   68 1   
    62   61   62 1   
    63   61   64 1   
    64   61   69 1   
    65   62   63 2   
    66   62   72 1   
    67   64   65 1   
    68   64   70 1   
    69   64   71 1   
    70   65   66 1   
    71   65   67 1   
    72   72   73 1   
    73   72   76 1   
    74   73   74 1   
    75   73   77 1   
    76   73   78 1   
    77   74   75 2   
    78   74   79 1   
    79   79   80 1   
    80   79   86 1   
    81   80   81 1   
    82   80   83 1   
    83   80   87 1   
    84   81   82 2   
    85   81   93 1   
    86   83   84 1   
    87   83   85 1   
    88   83   88 1   
    89   84   90 1   
    90   84   91 1   
    91   84   92 1   
    92   85   89 1   
    93   93   94 1   
    94   93  101 1   
    95   94   95 1   
    96   94   97 1   
    97   94  102 1   
    98   95   96 2   
    99   95  112 1   
   100   97   98 1   
   101   97   99 1   
   102   97  103 1   
   103   98  100 1   
   104   98  104 1   
   105   98  105 1   
   106   99  106 1   
   107   99  107 1   
   108   99  108 1   
   109  100  109 1   
   110  100  110 1   
   111  100  111 1   
   112  112  113 1   
   113  112  119 1   
   114  113  114 1   
   115  113  116 1   
   116  113  120 1   
   117  114  115 2   
   118  114  126 1   
   119  116  117 1   
   120  116  118 1   
   121  116  121 1   
   122  117  123 1   
   123  117  124 1   
   124  117  125 1   
   125  118  122 1   
   126  126  127 1   
   127  126  133 1   
   128  127  128 1   
   129  127  130 1   
   130  127  134 1   
   131  128  129 2   
   132  128  140 1   
   133  130  131 1   
   134  130  132 1   
   135  130  135 1   
   136  131  137 1   
   137  131  138 1   
   138  131  139 1   
   139  132  136 1   
   140  140  141 1   
   141  140  149 1   
   142  141  142 1   
   143  141  144 1   
   144  141  150 1   
   145  142  143 2   
   146  142  162 1   
   147  144  145 1   
   148  144  151 1   
   149  144  152 1   
   150  145  146 1   
   151  145  153 1   
   152  145  154 1   
   153  146  147 1   
   154  146  155 1   
   155  146  156 1   
   156  147  148 1   
   157  147  157 1   
   158  147  158 1   
   159  148  159 1   
   160  148  160 1   
   161  148  161 1   
   162  162  163 1   
   163  162  171 1   
   164  163  164 1   
   165  163  166 1   
   166  163  172 1   
   167  164  165 2   
   168  164  177 1   
   169  166  167 1   
   170  166  173 1   
   171  166  174 1   
   172  167  168 1   
   173  167  175 1   
   174  167  176 1   
   175  168  169 1   
   176  168  170 1   
   177  177  178 1   
   178  177  182 1   
   179  178  179 1   
   180  178  180 1   
   181  178  181 1   
   182  184  185 1   
   183  184  186 1   
   184  187  188 1   
   185  187  189 1   
   186  190  191 1   
   187  190  192 1   
@<TRIPOS>SUBSTRUCTURE
     1 MOL         1 TEMP              0 ****  ****    0 ROOT
