@<TRIPOS>MOLECULE
MOL
  178   175     1     0     0
SMALL
resp


@<TRIPOS>ATOM
      1 C1          4.7910   -1.9280    2.6410 c3        1 MOL     -0.419891
      2 C2          6.0840   -1.0610    2.5210 c         1 MOL      0.630190
      3 O1          6.0180    0.0230    2.0450 o         1 MOL     -0.563657
      4 H1          4.4910   -2.2700    1.6500 hc        1 MOL      0.113798
      5 H2          4.9890   -2.7910    3.2780 hc        1 MOL      0.113798
      6 H3          3.9900   -1.3300    3.0760 hc        1 MOL      0.113798
      7 N1          7.2330   -1.6510    2.8910 n         1 MOL     -0.553011
      8 C3          8.5170   -0.9510    2.8990 c3        1 MOL      0.252982
      9 C4          8.8140   -0.5660    1.4100 c         1 MOL      0.667941
     10 O2          9.0690   -1.4570    0.6420 o         1 MOL     -0.577673
     11 C5          9.4340   -1.8690    3.4820 c3        1 MOL     -0.417570
     12 C6         10.8660   -1.2960    3.5340 c         1 MOL      0.807115
     13 O3         11.0740   -0.0810    3.4190 o         1 MOL     -0.754856
     14 O4         11.7920   -2.1030    3.6290 o         1 MOL     -0.754856
     15 H4          7.0910   -2.6310    3.0610 hn        1 MOL      0.297749
     16 H5          8.3980   -0.0460    3.4950 h1        1 MOL     -0.000626
     17 H6          9.4650   -2.7870    2.8980 hc        1 MOL      0.071880
     18 H7          9.0470   -2.0220    4.4900 hc        1 MOL      0.071880
     19 N2          8.7810    0.7010    1.1040 n         1 MOL     -0.468417
     20 C7          8.9060    1.2060   -0.2880 c3        1 MOL      0.213577
     21 C8          7.6510    1.0850   -1.2180 c         1 MOL      0.517231
     22 O5          7.8080    1.1540   -2.4470 o         1 MOL     -0.577396
     23 C9          9.2810    2.6880   -0.1290 c3        1 MOL     -0.294562
     24 H8          8.5420    1.4010    1.8020 hn        1 MOL      0.238305
     25 H9          9.7830    0.6790   -0.6590 h1        1 MOL      0.067179
     26 H10        10.1870    2.6920    0.4730 hc        1 MOL      0.071690
     27 H11         9.5350    3.0020   -1.1360 hc        1 MOL      0.071690
     28 H12         8.5160    3.3250    0.3180 hc        1 MOL      0.071690
     29 N3          6.4650    0.8570   -0.6400 n         1 MOL     -0.635854
     30 C10         5.2250    0.2810   -1.2590 c3        1 MOL      0.036083
     31 C11         4.7280    0.7980   -2.6570 c         1 MOL      0.563624
     32 O6          3.9840    0.1170   -3.4330 o         1 MOL     -0.492041
     33 C12         5.4010   -1.2230   -1.2010 c3        1 MOL     -0.003691
     34 C13         4.1020   -2.0540   -1.4330 c         1 MOL      0.552409
     35 O7          4.2490   -3.0640   -2.1180 o         1 MOL     -0.705112
     36 O8          3.0100   -1.7460   -0.9420 o         1 MOL     -0.705112
     37 H13         6.4810    0.9220    0.3740 hn        1 MOL      0.339312
     38 H14         4.4640    0.5180   -0.5230 h1        1 MOL      0.101466
     39 H15         5.7770   -1.5400   -0.2290 hc        1 MOL      0.038215
     40 H16         6.1930   -1.4540   -1.9090 hc        1 MOL      0.038215
     41 N4          5.0360    2.0020   -3.0860 n         1 MOL     -0.239317
     42 C14         4.5990    2.5910   -4.3150 c3        1 MOL     -0.225579
     43 C15         3.2290    3.3220   -4.3730 c         1 MOL      0.565471
     44 O9          2.8030    3.8350   -5.4110 o         1 MOL     -0.576721
     45 H17         5.7410    2.4700   -2.5310 hn        1 MOL      0.251502
     46 H18         4.6610    1.8560   -5.1140 h1        1 MOL      0.108370
     47 H19         5.3060    3.3870   -4.5440 h1        1 MOL      0.108370
     48 N5          2.6040    3.3790   -3.2040 n         1 MOL     -0.509893
     49 C16         1.3590    4.1470   -3.0600 c3        1 MOL      0.568669
     50 C17         1.2000    4.7510   -1.6230 c         1 MOL      0.302491
     51 O10         1.7790    4.1510   -0.7010 o         1 MOL     -0.428856
     52 C18         0.1700    3.2040   -3.4550 c3        1 MOL     -0.250994
     53 C19        -1.0030    3.9280   -4.1090 c         1 MOL      0.646166
     54 N6         -1.5530    3.4630   -5.2650 n         1 MOL     -0.818531
     55 O11        -1.3660    4.9830   -3.6340 o         1 MOL     -0.570690
     56 H20         2.9960    2.9100   -2.3970 hn        1 MOL      0.183130
     57 H21         1.4060    4.9900   -3.7600 h1        1 MOL     -0.075038
     58 H22        -0.1710    2.8050   -2.4860 hc        1 MOL      0.104110
     59 H23         0.4670    2.4250   -4.1590 hc        1 MOL      0.104110
     60 H24        -1.1270    2.8570   -5.9580 hn        1 MOL      0.370452
     61 H25        -2.3540    4.0000   -5.5360 hn        1 MOL      0.370452
     62 N7          0.2160    5.6980   -1.4380 n         1 MOL     -0.581304
     63 C20        -0.1000    6.2560   -0.1450 c3        1 MOL      0.391226
     64 C21        -1.4580    5.8120    0.3710 c         1 MOL      0.366353
     65 O12        -2.1090    4.9750   -0.3250 o         1 MOL     -0.390684
     66 H26        -0.4000    5.8850   -2.2190 hn        1 MOL      0.317322
     67 H27        -0.0790    7.3420   -0.1330 h1        1 MOL     -0.032310
     68 H28         0.6580    5.9780    0.5900 h1        1 MOL     -0.032310
     69 N8         -2.0240    6.3010    1.5220 n         1 MOL     -0.332091
     70 C22        -3.4310    6.0310    1.8660 c3        1 MOL     -0.611244
     71 C23        -3.8070    4.6070    2.4320 c         1 MOL      0.699383
     72 O13        -4.9540    4.2410    2.4440 o         1 MOL     -0.564506
     73 C24        -3.9050    7.0920    2.9000 c3        1 MOL      0.585300
     74 C25        -3.1310    7.1020    4.2250 c3        1 MOL     -0.466039
     75 O14        -3.8880    8.3380    2.3290 oh        1 MOL     -0.617939
     76 H29        -1.4710    6.9040    2.0990 hn        1 MOL      0.237609
     77 H30        -4.0190    6.1310    0.9500 h1        1 MOL      0.272301
     78 H31        -4.9300    6.8370    3.1430 h1        1 MOL      0.018371
     79 H32        -2.9430    8.4770    2.2120 ho        1 MOL      0.370989
     80 H33        -2.0620    7.2940    4.1020 hc        1 MOL      0.107915
     81 H34        -3.5980    7.9320    4.7500 hc        1 MOL      0.107915
     82 H35        -3.2890    6.2600    4.9070 hc        1 MOL      0.107915
     83 N9         -2.8020    3.7860    2.8280 n         1 MOL     -0.340323
     84 C26        -2.8550    2.3950    3.3000 c3        1 MOL      0.005110
     85 C27        -2.1600    1.5620    2.2070 c         1 MOL      0.369440
     86 O15        -1.1360    1.9030    1.6680 o         1 MOL     -0.458145
     87 C28        -2.1700    2.2090    4.6310 c3        1 MOL      0.290611
     88 C29        -2.8220    3.0930    5.7270 c3        1 MOL      0.025749
     89 C30        -2.4220    0.7550    5.0370 c3        1 MOL     -0.276352
     90 C31        -4.3470    3.1360    6.0740 c3        1 MOL     -0.094715
     91 H36        -1.8720    4.1910    2.9190 hn        1 MOL      0.229558
     92 H37        -3.8670    2.0880    3.5500 h1        1 MOL      0.037551
     93 H38        -1.1160    2.4640    4.5540 hc        1 MOL     -0.015449
     94 H39        -2.4790    4.1170    5.5540 hc        1 MOL     -0.031694
     95 H40        -2.2590    2.7670    6.5960 hc        1 MOL     -0.031694
     96 H41        -3.3260    0.2740    4.6510 hc        1 MOL      0.059324
     97 H42        -1.6810    0.1400    4.5250 hc        1 MOL      0.059324
     98 H43        -2.3330    0.6270    6.1140 hc        1 MOL      0.059324
     99 H44        -4.8610    3.8720    5.4650 hc        1 MOL      0.021781
    100 H45        -4.8540    2.1700    6.0270 hc        1 MOL      0.021781
    101 H46        -4.4000    3.4150    7.1390 hc        1 MOL      0.021781
    102 N10        -2.8370    0.4830    1.8260 n         1 MOL     -0.318900
    103 C32        -2.3330   -0.4590    0.7540 c3        1 MOL      0.264376
    104 C33        -3.3680   -1.0590   -0.2070 c         1 MOL      0.386167
    105 O16        -3.2910   -2.1800   -0.7350 o         1 MOL     -0.437218
    106 C34        -1.4710   -1.5750    1.3050 c3        1 MOL     -0.051895
    107 C35        -0.4870   -2.2870    0.2970 c         1 MOL      0.706827
    108 O17        -0.2190   -1.8900   -0.8820 o         1 MOL     -0.731778
    109 O18         0.1400   -3.2520    0.7210 o         1 MOL     -0.731778
    110 H47        -3.7140    0.2550    2.2660 hn        1 MOL      0.219319
    111 H48        -1.6430    0.0450    0.0740 h1        1 MOL      0.023003
    112 H49        -2.2570   -2.2370    1.6770 hc        1 MOL     -0.019582
    113 H50        -0.8990   -1.1830    2.1440 hc        1 MOL     -0.019582
    114 N11        -4.4490   -0.2820   -0.3190 n         1 MOL     -0.423088
    115 C36        -5.7360   -0.6930   -0.9000 c3        1 MOL      0.257522
    116 C37        -6.2260   -2.0190   -0.1600 c         1 MOL      0.347074
    117 O19        -6.2980   -1.9990    1.0350 o         1 MOL     -0.500804
    118 C38        -6.7850    0.4450   -0.8720 c3        1 MOL     -0.222575
    119 C39        -6.3450    1.5870   -1.7210 ca        1 MOL      0.022126
    120 C40        -6.0380    2.7870   -0.9840 ca        1 MOL     -0.095093
    121 C41        -6.3860    1.6000   -3.1030 ca        1 MOL     -0.095093
    122 C42        -5.8420    4.0110   -1.6900 ca        1 MOL     -0.158477
    123 C43        -6.1430    2.7690   -3.7890 ca        1 MOL     -0.158477
    124 C44        -5.8500    3.9690   -3.1060 ca        1 MOL     -0.042672
    125 H51        -4.3670    0.6390    0.0950 hn        1 MOL      0.221745
    126 H52        -5.5600   -0.8780   -1.9630 h1        1 MOL      0.003373
    127 H53        -6.9560    0.7370    0.1680 hc        1 MOL      0.090195
    128 H54        -7.7550   -0.0030   -1.1160 hc        1 MOL      0.090195
    129 H55        -6.0700    2.8290    0.0980 ha        1 MOL      0.105841
    130 H56        -6.5960    0.6740   -3.6110 ha        1 MOL      0.105841
    131 H57        -5.6480    4.9440   -1.1680 ha        1 MOL      0.103923
    132 H58        -6.2140    2.7140   -4.8610 ha        1 MOL      0.103923
    133 H59        -5.6480    4.8560   -3.7000 ha        1 MOL      0.089068
    134 N12        -6.5740   -3.0980   -0.8950 n         1 MOL     -0.264666
    135 C45        -7.0320   -4.3680   -0.3430 c3        1 MOL      0.341158
    136 C46        -6.0440   -5.0020    0.5750 c         1 MOL      0.361200
    137 O20        -6.4480   -5.5580    1.5620 o         1 MOL     -0.567142
    138 C47        -7.3090   -5.2370   -1.5440 c3        1 MOL     -0.072775
    139 C48        -7.6760   -4.2540   -2.6430 c3        1 MOL     -0.012503
    140 C49        -6.6450   -3.1310   -2.3630 c3        1 MOL     -0.093839
    141 H60        -7.9600   -4.2530    0.2190 h1        1 MOL     -0.008331
    142 H61        -6.3940   -5.7570   -1.8420 hc        1 MOL      0.021208
    143 H62        -8.0790   -5.9390   -1.2280 hc        1 MOL      0.021208
    144 H63        -7.5820   -4.6340   -3.6550 hc        1 MOL      0.019541
    145 H64        -8.7160   -3.9590   -2.5180 hc        1 MOL      0.019541
    146 H65        -5.6630   -3.4200   -2.7450 h1        1 MOL      0.073128
    147 H66        -6.9680   -2.2330   -2.8960 h1        1 MOL      0.073128
    148 N13        -4.7370   -4.7970    0.3550 n         1 MOL     -0.288565
    149 C50        -3.6950   -5.6250    1.0110 c3        1 MOL      0.005101
    150 C51        -3.6530   -5.5040    2.4920 c         1 MOL      0.373425
    151 O21        -2.9620   -6.3200    3.1070 o         1 MOL     -0.541187
    152 C52        -2.3260   -5.4820    0.3600 c3        1 MOL      0.097379
    153 C53        -2.1940   -6.1220   -1.0010 c3        1 MOL     -0.266496
    154 C54        -0.7670   -5.7320   -1.5520 c         1 MOL      0.815294
    155 O22        -0.6190   -4.7770   -2.2950 o         1 MOL     -0.795251
    156 O23         0.2440   -6.3780   -1.2170 o         1 MOL     -0.795251
    157 H67        -4.4740   -4.2100   -0.4240 hn        1 MOL      0.249507
    158 H68        -3.9350   -6.6620    0.7680 h1        1 MOL      0.073218
    159 H69        -1.5440   -5.8380    1.0260 hc        1 MOL      0.023080
    160 H70        -2.2360   -4.4040    0.2060 hc        1 MOL      0.023080
    161 H71        -3.0110   -5.7730   -1.6310 hc        1 MOL      0.032558
    162 H72        -2.3430   -7.1950   -0.9290 hc        1 MOL      0.032558
    163 N14        -4.2750   -4.5070    3.1460 n         1 MOL     -0.023041
    164 C55        -4.1590   -4.1440    4.5390 c3        1 MOL     -0.452193
    165 H73        -3.1050   -4.0570    4.8040 h1        1 MOL      0.146544
    166 H74        -4.6570   -3.1900    4.7100 h1        1 MOL      0.146544
    167 H75        -4.6250   -4.9120    5.1550 h1        1 MOL      0.146544
    168 H76        -4.8740   -4.0110    2.5080 hn        1 MOL      0.184537
    169 Ca1         1.6480   -3.8270   -1.5230 Ca        1 MOL      1.747495
    170 O24         3.2140   -5.0550    0.0690 oh        1 MOL     -0.796056
    171 H77         3.2830   -4.9770    1.0210 ho        1 MOL      0.396104
    172 H78         3.6450   -5.8840   -0.1400 ho        1 MOL      0.396104
    173 O25         0.8850   -2.4890   -3.6340 oh        1 MOL     -0.796056
    174 H79         0.8470   -2.6920   -4.5680 ho        1 MOL      0.396104
    175 H80         0.0570   -2.0600   -3.4410 ho        1 MOL      0.396104
    176 O26         2.2530   -5.6990   -3.4330 oh        1 MOL     -0.796056
    177 H81         1.6530   -6.4460   -3.4610 ho        1 MOL      0.396104
    178 H82         3.1100   -6.0670   -3.6240 ho        1 MOL      0.396104
@<TRIPOS>BOND
     1    1    2 1   
     2    1    4 1   
     3    1    5 1   
     4    1    6 1   
     5    2    3 2   
     6    2    7 1   
     7    7    8 1   
     8    7   15 1   
     9    8    9 1   
    10    8   11 1   
    11    8   16 1   
    12    9   10 2   
    13    9   19 1   
    14   11   12 1   
    15   11   17 1   
    16   11   18 1   
    17   12   13 1   
    18   12   14 1   
    19   19   20 1   
    20   19   24 1   
    21   20   21 1   
    22   20   23 1   
    23   20   25 1   
    24   21   22 2   
    25   21   29 1   
    26   23   26 1   
    27   23   27 1   
    28   23   28 1   
    29   29   30 1   
    30   29   37 1   
    31   30   31 1   
    32   30   33 1   
    33   30   38 1   
    34   31   32 2   
    35   31   41 1   
    36   33   34 1   
    37   33   39 1   
    38   33   40 1   
    39   34   35 1   
    40   34   36 1   
    41   41   42 1   
    42   41   45 1   
    43   42   43 1   
    44   42   46 1   
    45   42   47 1   
    46   43   44 2   
    47   43   48 1   
    48   48   49 1   
    49   48   56 1   
    50   49   50 1   
    51   49   52 1   
    52   49   57 1   
    53   50   51 2   
    54   50   62 1   
    55   52   53 1   
    56   52   58 1   
    57   52   59 1   
    58   53   54 1   
    59   53   55 2   
    60   54   60 1   
    61   54   61 1   
    62   62   63 1   
    63   62   66 1   
    64   63   64 1   
    65   63   67 1   
    66   63   68 1   
    67   64   65 2   
    68   64   69 1   
    69   69   70 1   
    70   69   76 1   
    71   70   71 1   
    72   70   73 1   
    73   70   77 1   
    74   71   72 2   
    75   71   83 1   
    76   73   74 1   
    77   73   75 1   
    78   73   78 1   
    79   74   80 1   
    80   74   81 1   
    81   74   82 1   
    82   75   79 1   
    83   83   84 1   
    84   83   91 1   
    85   84   85 1   
    86   84   87 1   
    87   84   92 1   
    88   85   86 2   
    89   85  102 1   
    90   87   88 1   
    91   87   89 1   
    92   87   93 1   
    93   88   90 1   
    94   88   94 1   
    95   88   95 1   
    96   89   96 1   
    97   89   97 1   
    98   89   98 1   
    99   90   99 1   
   100   90  100 1   
   101   90  101 1   
   102  102  103 1   
   103  102  110 1   
   104  103  104 1   
   105  103  106 1   
   106  103  111 1   
   107  104  105 2   
   108  104  114 1   
   109  106  107 1   
   110  106  112 1   
   111  106  113 1   
   112  107  108 1   
   113  107  109 1   
   114  114  115 1   
   115  114  125 1   
   116  115  116 1   
   117  115  118 1   
   118  115  126 1   
   119  116  117 2   
   120  116  134 1   
   121  118  119 1   
   122  118  127 1   
   123  118  128 1   
   124  119  120 ar  
   125  119  121 ar  
   126  120  122 ar  
   127  120  129 1   
   128  121  123 ar  
   129  121  130 1   
   130  122  124 ar  
   131  122  131 1   
   132  123  124 ar  
   133  123  132 1   
   134  124  133 1   
   135  134  135 1   
   136  134  140 1   
   137  135  136 1   
   138  135  138 1   
   139  135  141 1   
   140  136  137 2   
   141  136  148 1   
   142  138  139 1   
   143  138  142 1   
   144  138  143 1   
   145  139  140 1   
   146  139  144 1   
   147  139  145 1   
   148  140  146 1   
   149  140  147 1   
   150  148  149 1   
   151  148  157 1   
   152  149  150 1   
   153  149  152 1   
   154  149  158 1   
   155  150  151 2   
   156  150  163 1   
   157  152  153 1   
   158  152  159 1   
   159  152  160 1   
   160  153  154 1   
   161  153  161 1   
   162  153  162 1   
   163  154  155 1   
   164  154  156 1   
   165  163  164 1   
   166  163  168 1   
   167  164  165 1   
   168  164  166 1   
   169  164  167 1   
   170  170  171 1   
   171  170  172 1   
   172  173  174 1   
   173  173  175 1   
   174  176  177 1   
   175  176  178 1   
@<TRIPOS>SUBSTRUCTURE
     1 MOL         1 TEMP              0 ****  ****    0 ROOT
