@<TRIPOS>MOLECULE
MOL
  195   189     1     0     0
SMALL
resp


@<TRIPOS>ATOM
      1 C1         -4.8890   -4.5590    4.6100 c3        1 MOL     -0.130397
      2 C2         -4.7550   -3.5700    3.4640 c         1 MOL      0.729131
      3 O1         -4.5000   -3.9350    2.3090 o         1 MOL     -0.626152
      4 H1         -4.7410   -4.0390    5.5570 hc        1 MOL      0.022720
      5 H2         -5.8830   -5.0040    4.5920 hc        1 MOL      0.022720
      6 H3         -4.1370   -5.3410    4.5060 hc        1 MOL      0.022720
      7 N1         -4.8800   -2.2740    3.7100 n         1 MOL     -0.466291
      8 C3         -4.5140   -1.1650    2.8870 c3        1 MOL      0.113351
      9 C4         -3.0570   -1.0180    2.3850 c         1 MOL      0.125055
     10 O2         -2.8920   -0.0540    1.6510 o         1 MOL     -0.188599
     11 C5         -4.8860    0.1420    3.6970 c3        1 MOL     -0.071206
     12 C6         -6.3460    0.0920    4.0870 c         1 MOL      0.707643
     13 O3         -6.6900   -0.6220    5.0840 o         1 MOL     -0.696024
     14 O4         -7.1050    0.8740    3.4490 o         1 MOL     -0.696024
     15 H4         -5.3780   -2.0610    4.5690 hn        1 MOL      0.242894
     16 H5         -5.2210   -1.1630    2.0490 h1        1 MOL      0.053570
     17 H6         -4.5520    1.0630    3.2330 hc        1 MOL     -0.006170
     18 H7         -4.3750    0.2310    4.6640 hc        1 MOL     -0.006170
     19 N2         -2.1090   -1.9610    2.5850 n         1 MOL     -0.389495
     20 C7         -0.6640   -1.7840    2.2070 c3        1 MOL      0.264873
     21 C8         -0.2170   -2.7350    1.0430 c         1 MOL      0.232995
     22 O5         -0.4850   -3.9570    1.0450 o         1 MOL     -0.460988
     23 C9          0.2060   -2.0310    3.4190 c3        1 MOL     -0.183408
     24 C10         0.3350   -0.7690    4.2620 c3        1 MOL     -0.244567
     25 C11         1.1480   -1.0890    5.5360 c3        1 MOL     -0.059300
     26 C12         1.6130    0.2550    6.1560 c3        1 MOL      0.069736
     27 N3          2.1550    0.0750    7.5360 n4        1 MOL     -0.296608
     28 H8         -2.3710   -2.7990    3.0830 hn        1 MOL      0.270401
     29 H9         -0.5080   -0.7660    1.8580 h1        1 MOL      0.084162
     30 H10         1.2320   -2.2650    3.1320 hc        1 MOL      0.104516
     31 H11        -0.0640   -2.9300    3.9770 hc        1 MOL      0.104516
     32 H12        -0.6370   -0.3460    4.5340 hc        1 MOL      0.118888
     33 H13         0.8400   -0.0630    3.6160 hc        1 MOL      0.118888
     34 H14         1.9790   -1.7500    5.2810 hc        1 MOL      0.053421
     35 H15         0.4390   -1.4810    6.2650 hc        1 MOL      0.053421
     36 H16         0.7100    0.8510    6.2610 hx        1 MOL      0.081052
     37 H17         2.3560    0.7880    5.5610 hx        1 MOL      0.081052
     38 H18         1.5540   -0.3900    8.2040 hn        1 MOL      0.304960
     39 H19         2.9330   -0.5490    7.6870 hn        1 MOL      0.304960
     40 H20         2.4310    0.9650    7.9230 hn        1 MOL      0.304960
     41 N4          0.5440   -2.2260    0.0570 n         1 MOL     -0.129765
     42 C13         0.8890   -0.7880   -0.2570 c3        1 MOL     -0.205184
     43 C14         1.5380    0.1040    0.8520 c         1 MOL      0.068954
     44 O6          0.9540    1.1150    1.1990 o         1 MOL     -0.395430
     45 C15        -0.2220   -0.0780   -1.0380 c3        1 MOL     -0.107271
     46 C16        -0.6560   -0.7820   -2.3390 c         1 MOL      0.563702
     47 O7         -1.6210   -0.3920   -2.9970 o         1 MOL     -0.708392
     48 O8         -0.0400   -1.8080   -2.7570 o         1 MOL     -0.708392
     49 H21         0.7370   -2.8700   -0.7010 hn        1 MOL      0.181024
     50 H22         1.6370   -0.8600   -1.0470 h1        1 MOL      0.079137
     51 H23         0.0250    0.9670   -1.1890 hc        1 MOL      0.144465
     52 H24        -1.1040   -0.0880   -0.3940 hc        1 MOL      0.144465
     53 N5          2.6370   -0.1820    1.5850 n         1 MOL      0.026174
     54 C17         3.5340   -1.3810    1.2360 c3        1 MOL     -0.150712
     55 C18         4.3540   -1.9260    2.4360 c         1 MOL      0.510109
     56 O9          4.1660   -1.5140    3.5930 o         1 MOL     -0.562109
     57 H25         2.8020    0.3400    2.4350 hn        1 MOL      0.187827
     58 H26         4.2500   -0.9820    0.5180 h1        1 MOL      0.094183
     59 H27         3.0460   -2.2260    0.7600 h1        1 MOL      0.094183
     60 N6          5.2590   -2.8540    2.1810 n         1 MOL     -0.418444
     61 C19         5.8790   -3.4140    0.9920 c3        1 MOL      0.060295
     62 C20         6.7010   -2.4030    0.1010 c         1 MOL      0.474017
     63 O10         7.1500   -1.3600    0.6310 o         1 MOL     -0.453603
     64 C21         6.7460   -4.6370    1.2970 c3        1 MOL     -0.035100
     65 C22         7.7570   -4.4990    2.4720 c         1 MOL      0.623608
     66 O11         7.6000   -3.5920    3.3670 o         1 MOL     -0.661107
     67 O12         8.6340   -5.3970    2.4570 o         1 MOL     -0.661107
     68 H28         5.8380   -3.0590    2.9870 hn        1 MOL      0.270800
     69 H29         5.0780   -3.7540    0.3320 h1        1 MOL     -0.018465
     70 H30         7.2350   -5.0520    0.4100 hc        1 MOL      0.004769
     71 H31         6.0520   -5.4450    1.5230 hc        1 MOL      0.004769
     72 N7          6.9590   -2.8070   -1.1670 n         1 MOL     -0.360423
     73 C23         7.7970   -1.9620   -2.0390 c3        1 MOL     -0.153978
     74 C24         7.2390   -0.5760   -2.3660 c         1 MOL      0.456371
     75 O13         8.0360    0.2800   -2.6350 o         1 MOL     -0.512229
     76 H32         6.5640   -3.6780   -1.4730 hn        1 MOL      0.275161
     77 H33         7.8800   -2.4820   -2.9850 h1        1 MOL      0.130524
     78 H34         8.7880   -1.8630   -1.5990 h1        1 MOL      0.130524
     79 N8          5.9140   -0.3620   -2.4250 n         1 MOL     -0.333129
     80 C25         5.2090    0.9020   -2.8170 c3        1 MOL      0.136601
     81 C26         4.3910    1.4120   -1.5870 c         1 MOL      0.449889
     82 O14         3.2850    0.9210   -1.3270 o         1 MOL     -0.385801
     83 C27         4.2710    0.6650   -4.0040 c3        1 MOL      0.427479
     84 C28         5.0740    0.2350   -5.2820 c3        1 MOL     -0.186823
     85 O15         3.7290    1.8800   -4.3580 oh        1 MOL     -0.610094
     86 H35         5.2970   -1.1390   -2.2600 hn        1 MOL      0.181837
     87 H36         5.8500    1.7400   -3.0820 h1        1 MOL      0.055482
     88 H37         3.4870   -0.0440   -3.7270 h1        1 MOL     -0.163162
     89 H38         3.0110    1.6610   -4.9640 ho        1 MOL      0.397908
     90 H39         4.2740   -0.0660   -5.9730 hc        1 MOL      0.033196
     91 H40         5.7140    1.0000   -5.7130 hc        1 MOL      0.033196
     92 H41         5.6700   -0.6430   -5.0380 hc        1 MOL      0.033196
     93 N9          4.9360    2.3680   -0.8530 n         1 MOL     -0.318098
     94 C29         4.4200    2.7870    0.4980 c3        1 MOL     -0.596578
     95 C30         3.1700    3.7330    0.5250 c         1 MOL      0.425907
     96 O16         2.7210    4.2250    1.5110 o         1 MOL     -0.465928
     97 C31         5.5260    3.2670    1.4950 c3        1 MOL      0.434900
     98 C32         6.0720    4.5730    0.8700 c3        1 MOL     -0.070756
     99 C33         6.7040    2.3020    1.7300 c3        1 MOL     -0.424931
    100 C34         7.1130    5.2540    1.7650 c3        1 MOL     -0.242625
    101 H42         5.7920    2.7770   -1.2070 hn        1 MOL      0.281402
    102 H43         3.8970    1.9610    0.9800 h1        1 MOL      0.237591
    103 H44         5.0630    3.5140    2.4520 hc        1 MOL     -0.023053
    104 H45         5.2400    5.2330    0.6500 hc        1 MOL      0.059152
    105 H46         6.6340    4.2920   -0.0210 hc        1 MOL      0.059152
    106 H47         7.3960    2.2420    0.8860 hc        1 MOL      0.117820
    107 H48         7.2470    2.7650    2.5620 hc        1 MOL      0.117820
    108 H49         6.3000    1.3390    2.0280 hc        1 MOL      0.117820
    109 H50         7.9910    4.6300    1.9040 hc        1 MOL      0.062253
    110 H51         7.4680    6.1400    1.2500 hc        1 MOL      0.062253
    111 H52         6.6560    5.5220    2.7160 hc        1 MOL      0.062253
    112 N10         2.6180    4.0790   -0.6880 n         1 MOL     -0.072864
    113 C35         1.6650    5.1910   -0.8880 c3        1 MOL     -0.333317
    114 C36         0.2980    4.8860   -0.2130 c         1 MOL      0.495774
    115 O17        -0.5850    5.7580   -0.0170 o         1 MOL     -0.570326
    116 C37         1.5110    5.4650   -2.4380 c3        1 MOL      0.361277
    117 C38         0.9810    4.2510   -3.1270 c3        1 MOL     -0.090041
    118 O18         2.8140    5.6510   -2.9520 oh        1 MOL     -0.619124
    119 H53         2.9870    3.6550   -1.5250 hn        1 MOL      0.147146
    120 H54         2.0440    6.0940   -0.3890 h1        1 MOL      0.148115
    121 H55         0.8690    6.3280   -2.5930 h1        1 MOL      0.021153
    122 H56         3.2970    6.3460   -2.4890 ho        1 MOL      0.375767
    123 H57         1.5540    3.3840   -2.8170 hc        1 MOL      0.027290
    124 H58        -0.0200    4.1410   -2.7050 hc        1 MOL      0.027290
    125 H59         0.9250    4.4370   -4.1980 hc        1 MOL      0.027290
    126 N11        -0.0160    3.6190    0.2000 n         1 MOL     -0.093958
    127 C39        -1.3100    3.1040    0.7270 c3        1 MOL      0.012784
    128 C40        -2.5480    3.1710   -0.2490 c         1 MOL      0.309463
    129 O19        -2.5560    3.9670   -1.2410 o         1 MOL     -0.517167
    130 C41        -1.6660    3.7080    2.0700 c3        1 MOL      0.435363
    131 C42        -0.5790    3.7520    3.1330 c3        1 MOL     -0.286214
    132 O20        -2.5930    2.8770    2.6900 oh        1 MOL     -0.583079
    133 H60         0.6520    2.9070   -0.0370 hn        1 MOL      0.158171
    134 H61        -1.1810    2.0350    0.9280 h1        1 MOL     -0.102114
    135 H62        -2.1380    4.6850    2.0360 h1        1 MOL      0.038594
    136 H63        -2.0010    2.1190    2.7520 ho        1 MOL      0.340828
    137 H64        -1.0020    3.7610    4.1450 hc        1 MOL      0.046858
    138 H65         0.0430    2.8590    3.1200 hc        1 MOL      0.046858
    139 H66         0.0790    4.6040    2.9440 hc        1 MOL      0.046858
    140 N12        -3.5150    2.2920   -0.0500 n         1 MOL     -0.113338
    141 C43        -4.8680    2.2120   -0.6790 c3        1 MOL     -0.024418
    142 C44        -5.1910    0.8720   -1.2480 c         1 MOL      0.355006
    143 O21        -6.2320    0.7200   -1.9740 o         1 MOL     -0.568037
    144 C45        -5.8950    2.6080    0.3990 c3        1 MOL      0.211439
    145 C46        -5.9510    4.0640    0.8380 c3        1 MOL     -0.086031
    146 C47        -6.1130    5.1190   -0.2950 c3        1 MOL     -0.039587
    147 C48        -7.5710    5.0410   -0.7760 c3        1 MOL      0.047251
    148 N13        -7.8160    5.8420   -2.0280 n4        1 MOL     -0.374932
    149 H67        -3.3440    1.6970    0.7510 hn        1 MOL      0.049464
    150 H68        -4.9050    2.9090   -1.5270 h1        1 MOL      0.081174
    151 H69        -5.8570    1.9820    1.2920 hc        1 MOL     -0.022132
    152 H70        -6.8870    2.4770   -0.0390 hc        1 MOL     -0.022132
    153 H71        -4.9820    4.2240    1.3050 hc        1 MOL      0.058555
    154 H72        -6.7060    4.2430    1.5990 hc        1 MOL      0.058555
    155 H73        -5.4210    4.9340   -1.1130 hc        1 MOL      0.025922
    156 H74        -5.9240    6.0940    0.1600 hc        1 MOL      0.025922
    157 H75        -8.1780    5.4090    0.0480 hx        1 MOL      0.072970
    158 H76        -7.7090    3.9810   -0.9780 hx        1 MOL      0.072970
    159 H77        -7.1240    5.6380   -2.7300 hn        1 MOL      0.329507
    160 H78        -8.7850    5.7260   -2.2820 hn        1 MOL      0.329507
    161 H79        -7.8440    6.8160   -1.7860 hn        1 MOL      0.329507
    162 N14        -4.4610   -0.2210   -0.9420 n         1 MOL      0.153956
    163 C49        -4.8120   -1.6100   -1.3290 c3        1 MOL     -0.484816
    164 C50        -6.2380   -2.0910   -0.9880 c         1 MOL      0.494962
    165 O22        -6.6660   -1.9100    0.1460 o         1 MOL     -0.450072
    166 C51        -3.7810   -2.6150   -0.7020 c3        1 MOL      0.966077
    167 C52        -3.8290   -4.0810   -1.1300 c3        1 MOL     -1.211075
    168 C53        -3.7760   -4.3440   -2.6240 c         1 MOL      1.227348
    169 O23        -4.8450   -4.1860   -3.2650 o         1 MOL     -0.895249
    170 O24        -2.7450   -4.7810   -3.1870 o         1 MOL     -0.895249
    171 H80        -3.6030   -0.0610   -0.4370 hn        1 MOL     -0.068212
    172 H81        -4.7600   -1.7050   -2.4160 h1        1 MOL      0.062737
    173 H82        -3.9390   -2.5490    0.3790 hc        1 MOL     -0.146394
    174 H83        -2.7480   -2.2890   -0.8340 hc        1 MOL     -0.146394
    175 H84        -4.7530   -4.5810   -0.8480 hc        1 MOL      0.301047
    176 H85        -2.9390   -4.5540   -0.7160 hc        1 MOL      0.301047
    177 N15        -6.9000   -2.8960   -1.8440 n         1 MOL     -0.395110
    178 C54        -8.2200   -3.5680   -1.6450 c3        1 MOL     -0.062910
    179 H86        -8.9720   -3.0810   -2.2670 h1        1 MOL      0.066526
    180 H87        -8.1410   -4.6180   -1.9280 h1        1 MOL      0.066526
    181 H88        -8.5110   -3.4950   -0.5970 h1        1 MOL      0.066526
    182 H89        -6.4260   -3.0480   -2.7310 hn        1 MOL      0.384624
    183 Ca1        -0.9990   -3.3650   -4.4570 Ca        1 MOL      1.724445
    184 O25        -3.3660   -1.7430   -4.4250 oh        1 MOL     -0.872130
    185 H90        -4.2860   -1.9250   -4.6170 ho        1 MOL      0.438960
    186 H91        -3.3910   -0.9230   -3.9230 ho        1 MOL      0.438960
    187 O26        -2.6020   -3.9840   -6.3530 oh        1 MOL     -0.872130
    188 H92        -3.4410   -4.4430   -6.2970 ho        1 MOL      0.438960
    189 H93        -2.2900   -4.1630   -7.2370 ho        1 MOL      0.438960
    190 O27         2.1100   -2.7800   -4.0100 oh        1 MOL     -0.872130
    191 H94         1.6040   -2.3470   -3.3220 ho        1 MOL      0.438960
    192 H95         2.5620   -2.0590   -4.4570 ho        1 MOL      0.438960
    193 O28        -0.9240   -1.1960   -6.0690 oh        1 MOL     -0.872130
    194 H96        -1.3680   -0.4490   -5.6550 ho        1 MOL      0.438960
    195 H97        -0.2970   -0.7970   -6.6780 ho        1 MOL      0.438960
@<TRIPOS>BOND
     1    1    2 1   
     2    1    4 1   
     3    1    5 1   
     4    1    6 1   
     5    2    3 2   
     6    2    7 1   
     7    7    8 1   
     8    7   15 1   
     9    8    9 1   
    10    8   11 1   
    11    8   16 1   
    12    9   10 2   
    13    9   19 1   
    14   11   12 1   
    15   11   17 1   
    16   11   18 1   
    17   12   13 1   
    18   12   14 1   
    19   19   20 1   
    20   19   28 1   
    21   20   21 1   
    22   20   23 1   
    23   20   29 1   
    24   21   22 2   
    25   21   41 1   
    26   23   24 1   
    27   23   30 1   
    28   23   31 1   
    29   24   25 1   
    30   24   32 1   
    31   24   33 1   
    32   25   26 1   
    33   25   34 1   
    34   25   35 1   
    35   26   27 1   
    36   26   36 1   
    37   26   37 1   
    38   27   38 1   
    39   27   39 1   
    40   27   40 1   
    41   41   42 1   
    42   41   49 1   
    43   42   43 1   
    44   42   45 1   
    45   42   50 1   
    46   43   44 2   
    47   43   53 1   
    48   45   46 1   
    49   45   51 1   
    50   45   52 1   
    51   46   47 1   
    52   46   48 1   
    53   53   54 1   
    54   53   57 1   
    55   54   55 1   
    56   54   58 1   
    57   54   59 1   
    58   55   56 2   
    59   55   60 1   
    60   60   61 1   
    61   60   68 1   
    62   61   62 1   
    63   61   64 1   
    64   61   69 1   
    65   62   63 2   
    66   62   72 1   
    67   64   65 1   
    68   64   70 1   
    69   64   71 1   
    70   65   66 1   
    71   65   67 1   
    72   72   73 1   
    73   72   76 1   
    74   73   74 1   
    75   73   77 1   
    76   73   78 1   
    77   74   75 2   
    78   74   79 1   
    79   79   80 1   
    80   79   86 1   
    81   80   81 1   
    82   80   83 1   
    83   80   87 1   
    84   81   82 2   
    85   81   93 1   
    86   83   84 1   
    87   83   85 1   
    88   83   88 1   
    89   84   90 1   
    90   84   91 1   
    91   84   92 1   
    92   85   89 1   
    93   93   94 1   
    94   93  101 1   
    95   94   95 1   
    96   94   97 1   
    97   94  102 1   
    98   95   96 2   
    99   95  112 1   
   100   97   98 1   
   101   97   99 1   
   102   97  103 1   
   103   98  100 1   
   104   98  104 1   
   105   98  105 1   
   106   99  106 1   
   107   99  107 1   
   108   99  108 1   
   109  100  109 1   
   110  100  110 1   
   111  100  111 1   
   112  112  113 1   
   113  112  119 1   
   114  113  114 1   
   115  113  116 1   
   116  113  120 1   
   117  114  115 2   
   118  114  126 1   
   119  116  117 1   
   120  116  118 1   
   121  116  121 1   
   122  117  123 1   
   123  117  124 1   
   124  117  125 1   
   125  118  122 1   
   126  126  127 1   
   127  126  133 1   
   128  127  128 1   
   129  127  130 1   
   130  127  134 1   
   131  128  129 2   
   132  128  140 1   
   133  130  131 1   
   134  130  132 1   
   135  130  135 1   
   136  131  137 1   
   137  131  138 1   
   138  131  139 1   
   139  132  136 1   
   140  140  141 1   
   141  140  149 1   
   142  141  142 1   
   143  141  144 1   
   144  141  150 1   
   145  142  143 2   
   146  142  162 1   
   147  144  145 1   
   148  144  151 1   
   149  144  152 1   
   150  145  146 1   
   151  145  153 1   
   152  145  154 1   
   153  146  147 1   
   154  146  155 1   
   155  146  156 1   
   156  147  148 1   
   157  147  157 1   
   158  147  158 1   
   159  148  159 1   
   160  148  160 1   
   161  148  161 1   
   162  162  163 1   
   163  162  171 1   
   164  163  164 1   
   165  163  166 1   
   166  163  172 1   
   167  164  165 2   
   168  164  177 1   
   169  166  167 1   
   170  166  173 1   
   171  166  174 1   
   172  167  168 1   
   173  167  175 1   
   174  167  176 1   
   175  168  169 1   
   176  168  170 1   
   177  177  178 1   
   178  177  182 1   
   179  178  179 1   
   180  178  180 1   
   181  178  181 1   
   182  184  185 1   
   183  184  186 1   
   184  187  188 1   
   185  187  189 1   
   186  190  191 1   
   187  190  192 1   
   188  193  194 1   
   189  193  195 1   
@<TRIPOS>SUBSTRUCTURE
     1 MOL         1 TEMP              0 ****  ****    0 ROOT
