@<TRIPOS>MOLECULE
MOL
  178   175     1     0     0
SMALL
resp


@<TRIPOS>ATOM
      1 C1          2.3400   -1.8970    4.4510 c3        1 MOL     -0.387447
      2 C2          3.6860   -1.6190    3.8760 c         1 MOL      0.693479
      3 O1          4.0550   -0.4790    3.7270 o         1 MOL     -0.602860
      4 H1          2.3750   -2.8240    5.0250 hc        1 MOL      0.093241
      5 H2          2.0470   -1.0760    5.1060 hc        1 MOL      0.093241
      6 H3          1.6140   -1.9970    3.6450 hc        1 MOL      0.093241
      7 N1          4.4600   -2.6680    3.5590 n         1 MOL     -0.436865
      8 C3          5.8550   -2.6620    2.9810 c3        1 MOL     -0.076959
      9 C4          5.8150   -2.5490    1.4710 c         1 MOL      0.755939
     10 O2          5.1190   -3.3090    0.7930 o         1 MOL     -0.616606
     11 C5          6.6140   -3.9570    3.3890 c3        1 MOL     -0.088993
     12 C6          5.8710   -5.1880    2.9560 c         1 MOL      0.753409
     13 O3          4.8860   -5.6410    3.6120 o         1 MOL     -0.710746
     14 O4          6.5510   -5.8290    2.0970 o         1 MOL     -0.710746
     15 H4          4.1380   -3.4880    4.0550 hn        1 MOL      0.211738
     16 H5          6.3170   -1.7510    3.3520 h1        1 MOL      0.045334
     17 H6          6.7880   -4.0310    4.4650 hc        1 MOL      0.018919
     18 H7          7.5970   -4.0190    2.9190 hc        1 MOL      0.018919
     19 N2          6.7380   -1.7590    0.9360 n         1 MOL     -0.689116
     20 C7          6.9220   -1.5840   -0.5030 c3        1 MOL      0.519294
     21 C8          5.9780   -0.5860   -1.0930 c         1 MOL      0.414208
     22 O5          5.4670    0.3580   -0.5070 o         1 MOL     -0.505793
     23 C9          8.3030   -1.1840   -0.6890 c3        1 MOL     -0.205670
     24 H8          7.4130   -1.2910    1.5240 hn        1 MOL      0.304371
     25 H9          6.8840   -2.5120   -1.0770 h1        1 MOL      0.035378
     26 H10         9.0290   -1.9860   -0.5730 hc        1 MOL      0.032382
     27 H11         8.4090   -0.8930   -1.7350 hc        1 MOL      0.032382
     28 H12         8.6120   -0.3090   -0.1120 hc        1 MOL      0.032382
     29 N3          5.7090   -0.7770   -2.4220 n         1 MOL     -0.848413
     30 C10         4.5780   -0.1630   -3.0800 c3        1 MOL      0.079844
     31 C11         4.8570    1.2690   -3.6020 c         1 MOL      0.669210
     32 O6          4.1460    1.7240   -4.5180 o         1 MOL     -0.581165
     33 C12         4.0330   -1.1220   -4.1080 c3        1 MOL     -0.428526
     34 C13         3.8140   -2.4850   -3.5050 c         1 MOL      0.880129
     35 O7          4.3590   -3.4510   -4.1080 o         1 MOL     -0.738294
     36 O8          3.1330   -2.6900   -2.4810 o         1 MOL     -0.738294
     37 H13         6.4780   -1.1320   -2.9790 hn        1 MOL      0.430258
     38 H14         3.7570   -0.0320   -2.3800 h1        1 MOL      0.129832
     39 H15         4.8280   -1.3230   -4.8280 hc        1 MOL      0.104730
     40 H16         3.0950   -0.8120   -4.5610 hc        1 MOL      0.104730
     41 N4          5.7710    2.0270   -2.9850 n         1 MOL     -0.383081
     42 C14         6.0310    3.3840   -3.3830 c3        1 MOL     -0.299351
     43 C15         5.0180    4.4930   -3.0980 c         1 MOL      0.631310
     44 O9          5.1680    5.6470   -3.4240 o         1 MOL     -0.585537
     45 H17         6.3180    1.6250   -2.2320 hn        1 MOL      0.346978
     46 H18         6.3310    3.3160   -4.4280 h1        1 MOL      0.124735
     47 H19         6.8750    3.7050   -2.7600 h1        1 MOL      0.124735
     48 N5          3.8280    4.2070   -2.5480 n         1 MOL     -0.347215
     49 C16         2.6970    5.1970   -2.4030 c3        1 MOL      0.065997
     50 C17         2.3450    5.3310   -0.9330 c         1 MOL      0.443491
     51 O10         2.1480    4.3100   -0.2650 o         1 MOL     -0.450093
     52 C18         1.5290    4.8930   -3.2960 c3        1 MOL     -0.174006
     53 C19         1.6960    4.9460   -4.8150 c         1 MOL      0.700101
     54 N6          1.9290    3.7940   -5.4080 n         1 MOL     -0.782164
     55 O11         1.4320    5.9160   -5.5540 o         1 MOL     -0.607691
     56 H20         3.7140    3.2500   -2.2430 hn        1 MOL      0.211426
     57 H21         3.1210    6.1590   -2.6820 h1        1 MOL      0.059522
     58 H22         0.7740    5.6460   -3.1000 hc        1 MOL      0.069893
     59 H23         1.1230    3.9300   -3.0030 hc        1 MOL      0.069893
     60 H24         2.2150    2.9650   -4.9210 hn        1 MOL      0.362689
     61 H25         2.0840    3.8550   -6.3990 hn        1 MOL      0.362689
     62 N7          2.4050    6.5380   -0.3730 n         1 MOL     -0.435982
     63 C20         1.9040    6.8760    0.9830 c3        1 MOL     -0.128972
     64 C21         0.3760    6.6500    1.0430 c         1 MOL      0.549758
     65 O12        -0.3220    6.4200    0.0230 o         1 MOL     -0.466464
     66 H26         2.7650    7.2730   -0.9570 hn        1 MOL      0.303152
     67 H27         2.0890    7.9440    1.1370 h1        1 MOL      0.111833
     68 H28         2.4610    6.3740    1.7660 h1        1 MOL      0.111833
     69 N8         -0.2510    6.7190    2.2410 n         1 MOL     -0.384140
     70 C22        -1.6850    6.8440    2.4750 c3        1 MOL     -0.404367
     71 C23        -2.4630    5.5230    2.5830 c         1 MOL      0.655294
     72 O13        -3.6490    5.5430    2.7200 o         1 MOL     -0.592089
     73 C24        -1.9660    7.7680    3.6630 c3        1 MOL      0.510621
     74 C25        -1.5730    7.2520    5.0330 c3        1 MOL     -0.521277
     75 O14        -1.3680    9.0020    3.3800 oh        1 MOL     -0.598905
     76 H29         0.3730    6.8550    3.0290 hn        1 MOL      0.223241
     77 H30        -1.9880    7.3910    1.5900 h1        1 MOL      0.189385
     78 H31        -3.0240    8.0290    3.6730 h1        1 MOL      0.044992
     79 H32        -0.4350    8.8330    3.5500 ho        1 MOL      0.355085
     80 H33        -1.4960    8.0630    5.7580 hc        1 MOL      0.131306
     81 H34        -2.2000    6.4740    5.4430 hc        1 MOL      0.131306
     82 H35        -0.6670    6.6570    4.9940 hc        1 MOL      0.131306
     83 N9         -1.7890    4.4010    2.6610 n         1 MOL     -0.319814
     84 C26        -2.3830    3.0480    2.9890 c3        1 MOL     -0.186971
     85 C27        -1.6930    2.0230    2.0470 c         1 MOL      0.644544
     86 O15        -0.5230    2.1420    1.8620 o         1 MOL     -0.507396
     87 C28        -2.2760    2.6510    4.4890 c3        1 MOL      0.205696
     88 C29        -3.1300    3.4620    5.4060 c3        1 MOL      0.088459
     89 C30        -2.7370    1.2320    4.5640 c3        1 MOL     -0.043128
     90 C31        -2.8100    3.2240    6.8810 c3        1 MOL     -0.255160
     91 H36        -0.8220    4.4570    2.3810 hn        1 MOL      0.232330
     92 H37        -3.4520    3.0310    2.7560 h1        1 MOL      0.098286
     93 H38        -1.2650    2.6660    4.9110 hc        1 MOL     -0.004489
     94 H39        -4.1710    3.2920    5.1370 hc        1 MOL     -0.018209
     95 H40        -2.9610    4.5070    5.1490 hc        1 MOL     -0.018209
     96 H41        -1.9540    0.6580    4.0580 hc        1 MOL     -0.002871
     97 H42        -2.7160    0.8130    5.5650 hc        1 MOL     -0.002871
     98 H43        -3.7180    1.0050    4.1380 hc        1 MOL     -0.002871
     99 H44        -1.7450    3.2410    7.1270 hc        1 MOL      0.058434
    100 H45        -3.0510    4.0680    7.5380 hc        1 MOL      0.058434
    101 H46        -3.3120    2.3390    7.2810 hc        1 MOL      0.058434
    102 N10        -2.3870    0.9890    1.5760 n         1 MOL     -0.613416
    103 C32        -1.7810   -0.0970    0.7820 c3        1 MOL      0.329656
    104 C33        -2.6910   -0.5820   -0.3720 c         1 MOL      0.471388
    105 O16        -2.6790   -1.7580   -0.8020 o         1 MOL     -0.452791
    106 C34        -1.2480   -1.1840    1.7170 c3        1 MOL     -0.214339
    107 C35        -0.0980   -2.0220    1.0160 c         1 MOL      0.798216
    108 O17         0.4370   -1.7330   -0.0780 o         1 MOL     -0.759299
    109 O18         0.3440   -2.9650    1.6370 o         1 MOL     -0.759299
    110 H47        -3.3660    0.9740    1.8510 hn        1 MOL      0.296080
    111 H48        -0.9220    0.2850    0.2170 h1        1 MOL      0.022640
    112 H49        -2.0930   -1.7950    2.0380 hc        1 MOL      0.052997
    113 H50        -0.8160   -0.7350    2.6180 hc        1 MOL      0.052997
    114 N11        -3.5160    0.3050   -0.8100 n         1 MOL     -0.422855
    115 C36        -4.6660    0.0710   -1.6780 c3        1 MOL      0.230449
    116 C37        -5.4930   -1.1870   -1.2040 c         1 MOL      0.197388
    117 O19        -5.8520   -1.2930   -0.0570 o         1 MOL     -0.503812
    118 C38        -5.5620    1.2570   -1.6260 c3        1 MOL     -0.199377
    119 C39        -6.7650    1.0550   -2.5120 ca        1 MOL      0.056810
    120 C40        -8.0590    0.7530   -1.9860 ca        1 MOL     -0.161505
    121 C41        -6.5780    1.2420   -3.8840 ca        1 MOL     -0.161505
    122 C42        -9.1590    0.6080   -2.8140 ca        1 MOL     -0.104232
    123 C43        -7.7350    1.1210   -4.6930 ca        1 MOL     -0.104232
    124 C44        -9.0160    0.7560   -4.2190 ca        1 MOL     -0.122910
    125 H51        -3.5720    1.1750   -0.2980 hn        1 MOL      0.211292
    126 H52        -4.2740   -0.0410   -2.6930 h1        1 MOL      0.021611
    127 H53        -4.9210    2.0870   -1.9530 hc        1 MOL      0.088286
    128 H54        -5.8260    1.5030   -0.6010 hc        1 MOL      0.088286
    129 H55        -8.1770    0.7730   -0.9140 ha        1 MOL      0.140464
    130 H56        -5.6130    1.4420   -4.3340 ha        1 MOL      0.140464
    131 H57       -10.1670    0.4070   -2.4650 ha        1 MOL      0.101727
    132 H58        -7.6000    1.2600   -5.7530 ha        1 MOL      0.101727
    133 H59        -9.8530    0.6940   -4.9050 ha        1 MOL      0.108249
    134 N12        -5.8990   -2.1460   -2.0350 n         1 MOL      0.092304
    135 C45        -6.6880   -3.3090   -1.6720 c3        1 MOL     -0.003121
    136 C46        -6.0940   -4.2770   -0.6790 c         1 MOL      0.298536
    137 O20        -6.8530   -5.0220   -0.0740 o         1 MOL     -0.463946
    138 C47        -6.9140   -4.0820   -2.9980 c3        1 MOL     -0.047067
    139 C48        -6.8400   -3.0300   -4.1110 c3        1 MOL     -0.088564
    140 C49        -5.7400   -2.0820   -3.5500 c3        1 MOL      0.077812
    141 H60        -7.6530   -3.0000   -1.2820 h1        1 MOL      0.066133
    142 H61        -6.0920   -4.7870   -3.1380 hc        1 MOL      0.043129
    143 H62        -7.8080   -4.7000   -2.9800 hc        1 MOL      0.043129
    144 H63        -6.5930   -3.4740   -5.0800 hc        1 MOL      0.025217
    145 H64        -7.7610   -2.4690   -4.2230 hc        1 MOL      0.025217
    146 H65        -4.7270   -2.3510   -3.8750 h1        1 MOL      0.011655
    147 H66        -6.0120   -1.1330   -4.0240 h1        1 MOL      0.011655
    148 N13        -4.6960   -4.2150   -0.4300 n         1 MOL     -0.058122
    149 C50        -4.0260   -5.0480    0.4980 c3        1 MOL     -0.199734
    150 C51        -4.5410   -4.8470    1.9300 c         1 MOL      0.468528
    151 O21        -5.0180   -5.8050    2.5780 o         1 MOL     -0.552526
    152 C52        -2.4900   -4.7280    0.5690 c3        1 MOL      0.147807
    153 C53        -1.8270   -5.1550   -0.8150 c3        1 MOL     -0.356552
    154 C54        -0.3350   -4.9360   -0.8560 c         1 MOL      0.803296
    155 O22         0.3990   -5.5670   -0.0660 o         1 MOL     -0.740131
    156 O23         0.1850   -4.1480   -1.7190 o         1 MOL     -0.740131
    157 H67        -4.1230   -3.6090   -1.0030 hn        1 MOL      0.086415
    158 H68        -4.1850   -6.1080    0.3070 h1        1 MOL      0.109473
    159 H69        -1.9400   -5.2190    1.3790 hc        1 MOL      0.011951
    160 H70        -2.2140   -3.7010    0.8120 hc        1 MOL      0.011951
    161 H71        -2.3480   -4.6250   -1.6180 hc        1 MOL      0.060050
    162 H72        -2.1270   -6.1870   -0.9540 hc        1 MOL      0.060050
    163 N14        -4.5670   -3.6090    2.3900 n         1 MOL     -0.199389
    164 C55        -4.7630   -3.3740    3.7980 c3        1 MOL     -0.168606
    165 H73        -5.5290   -2.6100    3.9350 h1        1 MOL      0.071873
    166 H74        -5.0820   -4.2980    4.2800 h1        1 MOL      0.071873
    167 H75        -3.8290   -3.0340    4.2440 h1        1 MOL      0.071873
    168 H76        -4.1630   -2.8430    1.8840 hn        1 MOL      0.222779
    169 Ca1         2.3780   -3.5280   -0.0960 Ca        1 MOL      1.800698
    170 O24         3.2460   -1.1210    0.3410 oh        1 MOL     -0.879332
    171 H77         2.4700   -0.5780    0.5040 ho        1 MOL      0.417894
    172 H78         3.9230   -0.4910    0.0870 ho        1 MOL      0.417894
    173 O25         2.6800   -5.0140    2.4070 oh        1 MOL     -0.879332
    174 H79         3.5010   -5.1580    2.8760 ho        1 MOL      0.417894
    175 H80         2.0240   -5.5080    2.8980 ho        1 MOL      0.417894
    176 O26         3.3680   -5.6370   -1.2820 oh        1 MOL     -0.879332
    177 H81         3.7150   -5.7320   -2.1710 ho        1 MOL      0.417894
    178 H82         3.9340   -6.1880   -0.7530 ho        1 MOL      0.417894
@<TRIPOS>BOND
     1    1    2 1   
     2    1    4 1   
     3    1    5 1   
     4    1    6 1   
     5    2    3 2   
     6    2    7 1   
     7    7    8 1   
     8    7   15 1   
     9    8    9 1   
    10    8   11 1   
    11    8   16 1   
    12    9   10 2   
    13    9   19 1   
    14   11   12 1   
    15   11   17 1   
    16   11   18 1   
    17   12   13 1   
    18   12   14 1   
    19   19   20 1   
    20   19   24 1   
    21   20   21 1   
    22   20   23 1   
    23   20   25 1   
    24   21   22 2   
    25   21   29 1   
    26   23   26 1   
    27   23   27 1   
    28   23   28 1   
    29   29   30 1   
    30   29   37 1   
    31   30   31 1   
    32   30   33 1   
    33   30   38 1   
    34   31   32 2   
    35   31   41 1   
    36   33   34 1   
    37   33   39 1   
    38   33   40 1   
    39   34   35 1   
    40   34   36 1   
    41   41   42 1   
    42   41   45 1   
    43   42   43 1   
    44   42   46 1   
    45   42   47 1   
    46   43   44 2   
    47   43   48 1   
    48   48   49 1   
    49   48   56 1   
    50   49   50 1   
    51   49   52 1   
    52   49   57 1   
    53   50   51 2   
    54   50   62 1   
    55   52   53 1   
    56   52   58 1   
    57   52   59 1   
    58   53   54 1   
    59   53   55 2   
    60   54   60 1   
    61   54   61 1   
    62   62   63 1   
    63   62   66 1   
    64   63   64 1   
    65   63   67 1   
    66   63   68 1   
    67   64   65 2   
    68   64   69 1   
    69   69   70 1   
    70   69   76 1   
    71   70   71 1   
    72   70   73 1   
    73   70   77 1   
    74   71   72 2   
    75   71   83 1   
    76   73   74 1   
    77   73   75 1   
    78   73   78 1   
    79   74   80 1   
    80   74   81 1   
    81   74   82 1   
    82   75   79 1   
    83   83   84 1   
    84   83   91 1   
    85   84   85 1   
    86   84   87 1   
    87   84   92 1   
    88   85   86 2   
    89   85  102 1   
    90   87   88 1   
    91   87   89 1   
    92   87   93 1   
    93   88   90 1   
    94   88   94 1   
    95   88   95 1   
    96   89   96 1   
    97   89   97 1   
    98   89   98 1   
    99   90   99 1   
   100   90  100 1   
   101   90  101 1   
   102  102  103 1   
   103  102  110 1   
   104  103  104 1   
   105  103  106 1   
   106  103  111 1   
   107  104  105 2   
   108  104  114 1   
   109  106  107 1   
   110  106  112 1   
   111  106  113 1   
   112  107  108 1   
   113  107  109 1   
   114  114  115 1   
   115  114  125 1   
   116  115  116 1   
   117  115  118 1   
   118  115  126 1   
   119  116  117 2   
   120  116  134 1   
   121  118  119 1   
   122  118  127 1   
   123  118  128 1   
   124  119  120 ar  
   125  119  121 ar  
   126  120  122 ar  
   127  120  129 1   
   128  121  123 ar  
   129  121  130 1   
   130  122  124 ar  
   131  122  131 1   
   132  123  124 ar  
   133  123  132 1   
   134  124  133 1   
   135  134  135 1   
   136  134  140 1   
   137  135  136 1   
   138  135  138 1   
   139  135  141 1   
   140  136  137 2   
   141  136  148 1   
   142  138  139 1   
   143  138  142 1   
   144  138  143 1   
   145  139  140 1   
   146  139  144 1   
   147  139  145 1   
   148  140  146 1   
   149  140  147 1   
   150  148  149 1   
   151  148  157 1   
   152  149  150 1   
   153  149  152 1   
   154  149  158 1   
   155  150  151 2   
   156  150  163 1   
   157  152  153 1   
   158  152  159 1   
   159  152  160 1   
   160  153  154 1   
   161  153  161 1   
   162  153  162 1   
   163  154  155 1   
   164  154  156 1   
   165  163  164 1   
   166  163  168 1   
   167  164  165 1   
   168  164  166 1   
   169  164  167 1   
   170  170  171 1   
   171  170  172 1   
   172  173  174 1   
   173  173  175 1   
   174  176  177 1   
   175  176  178 1   
@<TRIPOS>SUBSTRUCTURE
     1 MOL         1 TEMP              0 ****  ****    0 ROOT
