@<TRIPOS>MOLECULE
MOL
  178   175     1     0     0
SMALL
resp


@<TRIPOS>ATOM
      1 C1          1.8000   -1.3650    5.3330 c3        1 MOL     -0.357217
      2 C2          2.7930   -0.9370    4.2540 c         1 MOL      0.550905
      3 O1          2.5510   -0.0650    3.3810 o         1 MOL     -0.519791
      4 H1          0.8500   -1.6280    4.8680 hc        1 MOL      0.087427
      5 H2          2.1940   -2.2300    5.8660 hc        1 MOL      0.087427
      6 H3          1.6470   -0.5450    6.0330 hc        1 MOL      0.087427
      7 N1          3.9610   -1.5470    4.2730 n         1 MOL     -0.290864
      8 C3          5.0690   -1.0230    3.5700 c3        1 MOL      0.186019
      9 C4          5.2890   -1.9370    2.2760 c         1 MOL      0.202969
     10 O2          6.2890   -1.7740    1.5640 o         1 MOL     -0.257819
     11 C5          6.2500   -0.9680    4.4300 c3        1 MOL     -0.225499
     12 C6          7.3650   -0.2800    3.7150 c         1 MOL      0.680762
     13 O3          7.2290    0.9240    3.4280 o         1 MOL     -0.677077
     14 O4          8.4070   -0.8740    3.4100 o         1 MOL     -0.677077
     15 H4          4.0890   -2.2710    4.9650 hn        1 MOL      0.212824
     16 H5          4.9070   -0.0050    3.2120 h1        1 MOL      0.041614
     17 H6          6.5850   -1.9730    4.6730 hc        1 MOL      0.017945
     18 H7          6.0050   -0.4840    5.3700 hc        1 MOL      0.017945
     19 N2          4.4250   -2.9450    2.0610 n         1 MOL     -0.270580
     20 C7          4.3870   -3.9640    0.9600 c3        1 MOL      0.048466
     21 C8          4.4770   -3.2860   -0.4700 c         1 MOL      0.541259
     22 O5          3.4670   -3.2260   -1.1720 o         1 MOL     -0.631584
     23 C9          5.4870   -4.9790    1.2230 c3        1 MOL     -0.312524
     24 H8          3.6840   -2.9590    2.7370 hn        1 MOL      0.205967
     25 H9          3.4170   -4.4670    0.9790 h1        1 MOL      0.124231
     26 H10         5.5420   -5.7770    0.4850 hc        1 MOL      0.082141
     27 H11         6.4100   -4.4190    1.3800 hc        1 MOL      0.082141
     28 H12         5.3100   -5.5530    2.1420 hc        1 MOL      0.082141
     29 N3          5.6450   -2.8000   -0.8480 n         1 MOL     -0.555462
     30 C10         5.8240   -2.2550   -2.1820 c3        1 MOL      0.480476
     31 C11         5.9720   -0.6800   -1.9840 c         1 MOL      0.474855
     32 O6          5.8730   -0.0280   -2.9960 o         1 MOL     -0.611235
     33 C12         7.0640   -2.8580   -2.8190 c3        1 MOL     -0.270758
     34 C13         8.2810   -3.0570   -1.9180 c         1 MOL      0.741811
     35 O7          8.4080   -2.3880   -0.8560 o         1 MOL     -0.715861
     36 O8          9.1810   -3.8910   -2.2560 o         1 MOL     -0.715861
     37 H13         6.4700   -2.7470   -0.2760 hn        1 MOL      0.288650
     38 H14         4.9410   -2.3510   -2.8050 h1        1 MOL     -0.067876
     39 H15         7.3130   -2.2200   -3.6630 hc        1 MOL     -0.001286
     40 H16         6.8290   -3.8430   -3.2310 hc        1 MOL     -0.001286
     41 N4          6.1230   -0.1160   -0.8130 n         1 MOL     -0.276496
     42 C14         6.2900    1.3680   -0.5760 c3        1 MOL      0.146587
     43 C15         5.2450    2.2550   -1.2830 c         1 MOL      0.462521
     44 O9          5.5630    3.3130   -1.8620 o         1 MOL     -0.584524
     45 H17         6.4600   -0.7210   -0.0780 hn        1 MOL      0.235606
     46 H18         7.2980    1.6510   -0.8950 h1        1 MOL      0.017770
     47 H19         6.2470    1.4930    0.5030 h1        1 MOL      0.017770
     48 N5          3.9480    1.8860   -1.3150 n         1 MOL     -0.091445
     49 C16         2.8590    2.5070   -2.1090 c3        1 MOL     -0.495678
     50 C17         2.4920    3.8570   -1.5810 c         1 MOL      0.608842
     51 O10         2.0870    4.0750   -0.4330 o         1 MOL     -0.506814
     52 C18         1.6060    1.4840   -2.1880 c3        1 MOL     -0.209805
     53 C19         1.8670    0.2660   -2.9160 c         1 MOL      0.781457
     54 N6          1.6980    0.3500   -4.1960 n         1 MOL     -0.807342
     55 O11         2.4470   -0.6860   -2.4210 o         1 MOL     -0.624117
     56 H20         3.7040    1.0720   -0.7540 hn        1 MOL      0.161041
     57 H21         3.3600    2.5350   -3.0820 h1        1 MOL      0.188096
     58 H22         0.6260    1.8640   -2.4780 hc        1 MOL      0.141434
     59 H23         1.3850    1.2540   -1.1470 hc        1 MOL      0.141434
     60 H24         1.5340    1.2580   -4.5830 hn        1 MOL      0.348355
     61 H25         2.2040   -0.3530   -4.7100 hn        1 MOL      0.348355
     62 N7          2.4390    4.7240   -2.5630 n         1 MOL     -0.146790
     63 C20         2.0690    6.1230   -2.4020 c3        1 MOL     -0.439175
     64 C21         0.6180    6.3410   -1.8890 c         1 MOL      0.528646
     65 O12        -0.3880    5.9610   -2.5310 o         1 MOL     -0.521404
     66 H26         2.7490    4.4050   -3.4710 hn        1 MOL      0.228684
     67 H27         2.0360    6.6700   -3.3420 h1        1 MOL      0.176015
     68 H28         2.8340    6.5690   -1.7760 h1        1 MOL      0.176015
     69 N8          0.4030    7.1700   -0.8810 n         1 MOL     -0.283628
     70 C22        -0.8720    7.6880   -0.3340 c3        1 MOL     -0.324451
     71 C23        -1.6520    6.7270    0.5010 c         1 MOL      0.480856
     72 O13        -2.6930    7.1480    1.0820 o         1 MOL     -0.558419
     73 C24        -0.5860    8.9390    0.4570 c3        1 MOL      0.500330
     74 C25         0.1680    8.5850    1.7740 c3        1 MOL     -0.410392
     75 O14         0.2060    9.8390   -0.2610 oh        1 MOL     -0.647695
     76 H29         1.3080    7.4110   -0.4880 hn        1 MOL      0.222810
     77 H30        -1.4840    8.0960   -1.1360 h1        1 MOL      0.181300
     78 H31        -1.4960    9.4720    0.7190 h1        1 MOL      0.043355
     79 H32         1.0890    9.4640   -0.3080 ho        1 MOL      0.381879
     80 H33        -0.5430    8.0930    2.4410 hc        1 MOL      0.095190
     81 H34         1.0830    8.0060    1.6470 hc        1 MOL      0.095190
     82 H35         0.6360    9.4660    2.2160 hc        1 MOL      0.095190
     83 N9         -1.1540    5.4570    0.6220 n         1 MOL     -0.043036
     84 C26        -1.9270    4.2910    1.0260 c3        1 MOL     -0.015907
     85 C27        -1.6910    3.1090    0.1000 c         1 MOL      0.417102
     86 O15        -0.8440    3.1900   -0.7740 o         1 MOL     -0.403208
     87 C28        -1.6230    3.8850    2.5090 c3        1 MOL     -0.028006
     88 C29        -0.1240    3.4910    2.5790 c3        1 MOL     -0.101530
     89 C30        -1.8460    5.0500    3.5080 c3        1 MOL     -0.231308
     90 C31         0.2610    2.7360    3.7970 c3        1 MOL     -0.053506
     91 H36        -0.3250    5.2470    0.0870 hn        1 MOL      0.043957
     92 H37        -2.9780    4.5690    0.9010 h1        1 MOL      0.054070
     93 H38        -2.2210    3.0320    2.8090 hc        1 MOL      0.050200
     94 H39         0.4830    4.3880    2.5250 hc        1 MOL      0.102272
     95 H40         0.2230    2.8390    1.7750 hc        1 MOL      0.102272
     96 H41        -1.8430    4.6160    4.5080 hc        1 MOL      0.058617
     97 H42        -1.1070    5.8510    3.4610 hc        1 MOL      0.058617
     98 H43        -2.8150    5.5020    3.3210 hc        1 MOL      0.058617
     99 H44         0.0550    3.3440    4.6800 hc        1 MOL      0.011943
    100 H45        -0.4030    1.8840    3.9650 hc        1 MOL      0.011943
    101 H46         1.2960    2.4060    3.7840 hc        1 MOL      0.011943
    102 N10        -2.4940    2.1220    0.2280 n         1 MOL     -0.427469
    103 C32        -2.3420    0.7630   -0.3590 c3        1 MOL     -0.136838
    104 C33        -3.6650   -0.0170   -0.4450 c         1 MOL      0.659072
    105 O16        -3.6480   -1.1670   -0.8970 o         1 MOL     -0.536693
    106 C34        -1.2830   -0.0030    0.3960 c3        1 MOL     -0.098051
    107 C35        -0.4140   -0.9110   -0.5070 c         1 MOL      0.703025
    108 O17         0.6550   -1.4150   -0.0740 o         1 MOL     -0.757357
    109 O18        -0.7250   -1.1690   -1.6590 o         1 MOL     -0.757357
    110 H47        -3.3040    2.2450    0.8140 hn        1 MOL      0.257841
    111 H48        -1.9690    0.8500   -1.3790 h1        1 MOL      0.118693
    112 H49        -1.6460   -0.6020    1.2310 hc        1 MOL      0.065120
    113 H50        -0.5700    0.6500    0.9000 hc        1 MOL      0.065120
    114 N11        -4.8180    0.6370   -0.3510 n         1 MOL     -0.530279
    115 C36        -6.1040   -0.0050   -0.5890 c3        1 MOL      0.324153
    116 C37        -6.4050   -1.1290    0.4530 c         1 MOL      0.278688
    117 O19        -6.1040   -0.9090    1.6170 o         1 MOL     -0.488114
    118 C38        -7.2560    1.0360   -0.6810 c3        1 MOL     -0.256496
    119 C39        -8.6190    0.5380   -1.2420 ca        1 MOL      0.095836
    120 C40        -8.8010    0.5790   -2.6560 ca        1 MOL     -0.213379
    121 C41        -9.5780   -0.1150   -0.3870 ca        1 MOL     -0.213379
    122 C42        -9.9130   -0.0340   -3.2010 ca        1 MOL     -0.068681
    123 C43       -10.6410   -0.8440   -0.9910 ca        1 MOL     -0.068681
    124 C44       -10.8290   -0.7280   -2.3700 ca        1 MOL     -0.158877
    125 H51        -4.8570    1.6030   -0.0670 hn        1 MOL      0.263339
    126 H52        -5.8780   -0.4890   -1.5440 h1        1 MOL     -0.012620
    127 H53        -6.9500    1.8360   -1.3510 hc        1 MOL      0.093389
    128 H54        -7.4190    1.4430    0.3140 hc        1 MOL      0.093389
    129 H55        -8.0760    1.1050   -3.2590 ha        1 MOL      0.139976
    130 H56        -9.5170   -0.1220    0.6900 ha        1 MOL      0.139976
    131 H57       -10.1430    0.0060   -4.2540 ha        1 MOL      0.098716
    132 H58       -11.4080   -1.3880   -0.4690 ha        1 MOL      0.098716
    133 H59       -11.7340   -1.1600   -2.7650 ha        1 MOL      0.102529
    134 N12        -6.8240   -2.3120   -0.0360 n         1 MOL     -0.065931
    135 C45        -7.1440   -3.4700    0.8090 c3        1 MOL      0.010671
    136 C46        -6.0030   -4.0610    1.7030 c         1 MOL      0.274737
    137 O20        -6.2270   -4.5830    2.7850 o         1 MOL     -0.486012
    138 C47        -7.4710   -4.5390   -0.2600 c3        1 MOL      0.111156
    139 C48        -7.9660   -3.8200   -1.4780 c3        1 MOL     -0.209549
    140 C49        -7.1290   -2.5510   -1.4330 c3        1 MOL      0.100026
    141 H60        -8.0250   -3.2480    1.4080 h1        1 MOL      0.063357
    142 H61        -6.5350   -5.0460   -0.4940 hc        1 MOL     -0.004642
    143 H62        -8.1280   -5.3100    0.1490 hc        1 MOL     -0.004642
    144 H63        -7.7030   -4.3580   -2.3850 hc        1 MOL      0.053149
    145 H64        -9.0360   -3.6020   -1.4550 hc        1 MOL      0.053149
    146 H65        -6.2450   -2.8010   -2.0230 h1        1 MOL      0.026831
    147 H66        -7.6610   -1.7660   -1.9780 h1        1 MOL      0.026831
    148 N13        -4.7560   -3.7150    1.3930 n         1 MOL     -0.029502
    149 C50        -3.6250   -3.7870    2.2980 c3        1 MOL     -0.314053
    150 C51        -3.6620   -2.8160    3.4550 c         1 MOL      0.576363
    151 O21        -3.3140   -3.2380    4.5910 o         1 MOL     -0.557054
    152 C52        -2.3110   -3.7050    1.4930 c3        1 MOL      0.165458
    153 C53        -1.9960   -4.8680    0.5210 c3        1 MOL     -0.179575
    154 C54        -0.9100   -4.4130   -0.4420 c         1 MOL      0.908977
    155 O22         0.2570   -4.2800   -0.0270 o         1 MOL     -0.834724
    156 O23        -1.1890   -4.3450   -1.6460 o         1 MOL     -0.834724
    157 H67        -4.6080   -3.2710    0.4980 hn        1 MOL      0.168357
    158 H68        -3.5840   -4.7770    2.7390 h1        1 MOL      0.123556
    159 H69        -1.5360   -3.7050    2.2560 hc        1 MOL      0.016848
    160 H70        -2.3050   -2.7440    1.0010 hc        1 MOL      0.016848
    161 H71        -2.9120   -5.0980   -0.0250 hc        1 MOL      0.006876
    162 H72        -1.6600   -5.7570    1.0540 hc        1 MOL      0.006876
    163 N14        -4.0020   -1.4940    3.2600 n         1 MOL     -0.227383
    164 C55        -4.1020   -0.5420    4.3660 c3        1 MOL     -0.317572
    165 H73        -5.0520   -0.6840    4.8820 h1        1 MOL      0.121755
    166 H74        -3.2820   -0.7080    5.0640 h1        1 MOL      0.121755
    167 H75        -4.0490    0.4750    3.9760 h1        1 MOL      0.121755
    168 H76        -4.3290   -1.2120    2.3510 hn        1 MOL      0.226543
    169 Ca1         1.0690   -2.9440   -2.2540 Ca        1 MOL      1.790659
    170 O24         2.5580   -3.1230   -4.4180 oh        1 MOL     -0.827389
    171 H77         3.4590   -2.8250   -4.5670 ho        1 MOL      0.405723
    172 H78         2.2460   -3.3760   -5.2870 ho        1 MOL      0.405723
    173 O25        -0.2990   -2.0410   -4.5640 oh        1 MOL     -0.827389
    174 H79        -0.8850   -1.2820   -4.4930 ho        1 MOL      0.405723
    175 H80        -0.5830   -2.4830   -5.3630 ho        1 MOL      0.405723
    176 O26         1.5960   -5.4470   -2.9250 oh        1 MOL     -0.827389
    177 H81         1.6830   -5.6210   -3.8550 ho        1 MOL      0.405723
    178 H82         2.0550   -6.1710   -2.4970 ho        1 MOL      0.405723
@<TRIPOS>BOND
     1    1    2 1   
     2    1    4 1   
     3    1    5 1   
     4    1    6 1   
     5    2    3 2   
     6    2    7 1   
     7    7    8 1   
     8    7   15 1   
     9    8    9 1   
    10    8   11 1   
    11    8   16 1   
    12    9   10 2   
    13    9   19 1   
    14   11   12 1   
    15   11   17 1   
    16   11   18 1   
    17   12   13 1   
    18   12   14 1   
    19   19   20 1   
    20   19   24 1   
    21   20   21 1   
    22   20   23 1   
    23   20   25 1   
    24   21   22 2   
    25   21   29 1   
    26   23   26 1   
    27   23   27 1   
    28   23   28 1   
    29   29   30 1   
    30   29   37 1   
    31   30   31 1   
    32   30   33 1   
    33   30   38 1   
    34   31   32 2   
    35   31   41 1   
    36   33   34 1   
    37   33   39 1   
    38   33   40 1   
    39   34   35 1   
    40   34   36 1   
    41   41   42 1   
    42   41   45 1   
    43   42   43 1   
    44   42   46 1   
    45   42   47 1   
    46   43   44 2   
    47   43   48 1   
    48   48   49 1   
    49   48   56 1   
    50   49   50 1   
    51   49   52 1   
    52   49   57 1   
    53   50   51 2   
    54   50   62 1   
    55   52   53 1   
    56   52   58 1   
    57   52   59 1   
    58   53   54 1   
    59   53   55 2   
    60   54   60 1   
    61   54   61 1   
    62   62   63 1   
    63   62   66 1   
    64   63   64 1   
    65   63   67 1   
    66   63   68 1   
    67   64   65 2   
    68   64   69 1   
    69   69   70 1   
    70   69   76 1   
    71   70   71 1   
    72   70   73 1   
    73   70   77 1   
    74   71   72 2   
    75   71   83 1   
    76   73   74 1   
    77   73   75 1   
    78   73   78 1   
    79   74   80 1   
    80   74   81 1   
    81   74   82 1   
    82   75   79 1   
    83   83   84 1   
    84   83   91 1   
    85   84   85 1   
    86   84   87 1   
    87   84   92 1   
    88   85   86 2   
    89   85  102 1   
    90   87   88 1   
    91   87   89 1   
    92   87   93 1   
    93   88   90 1   
    94   88   94 1   
    95   88   95 1   
    96   89   96 1   
    97   89   97 1   
    98   89   98 1   
    99   90   99 1   
   100   90  100 1   
   101   90  101 1   
   102  102  103 1   
   103  102  110 1   
   104  103  104 1   
   105  103  106 1   
   106  103  111 1   
   107  104  105 2   
   108  104  114 1   
   109  106  107 1   
   110  106  112 1   
   111  106  113 1   
   112  107  108 1   
   113  107  109 1   
   114  114  115 1   
   115  114  125 1   
   116  115  116 1   
   117  115  118 1   
   118  115  126 1   
   119  116  117 2   
   120  116  134 1   
   121  118  119 1   
   122  118  127 1   
   123  118  128 1   
   124  119  120 ar  
   125  119  121 ar  
   126  120  122 ar  
   127  120  129 1   
   128  121  123 ar  
   129  121  130 1   
   130  122  124 ar  
   131  122  131 1   
   132  123  124 ar  
   133  123  132 1   
   134  124  133 1   
   135  134  135 1   
   136  134  140 1   
   137  135  136 1   
   138  135  138 1   
   139  135  141 1   
   140  136  137 2   
   141  136  148 1   
   142  138  139 1   
   143  138  142 1   
   144  138  143 1   
   145  139  140 1   
   146  139  144 1   
   147  139  145 1   
   148  140  146 1   
   149  140  147 1   
   150  148  149 1   
   151  148  157 1   
   152  149  150 1   
   153  149  152 1   
   154  149  158 1   
   155  150  151 2   
   156  150  163 1   
   157  152  153 1   
   158  152  159 1   
   159  152  160 1   
   160  153  154 1   
   161  153  161 1   
   162  153  162 1   
   163  154  155 1   
   164  154  156 1   
   165  163  164 1   
   166  163  168 1   
   167  164  165 1   
   168  164  166 1   
   169  164  167 1   
   170  170  171 1   
   171  170  172 1   
   172  173  174 1   
   173  173  175 1   
   174  176  177 1   
   175  176  178 1   
@<TRIPOS>SUBSTRUCTURE
     1 MOL         1 TEMP              0 ****  ****    0 ROOT
