@<TRIPOS>MOLECULE
MOL
  181   177     1     0     0
SMALL
resp


@<TRIPOS>ATOM
      1 C1          8.4990   -4.7650    5.2470 c3        1 MOL     -0.307951
      2 C2          7.6080   -3.7350    4.4590 c         1 MOL      0.686784
      3 O1          6.6110   -3.1990    5.0280 o         1 MOL     -0.588956
      4 H1          8.6770   -5.6420    4.6240 hc        1 MOL      0.073160
      5 H2          9.4530   -4.3020    5.5010 hc        1 MOL      0.073160
      6 H3          7.9860   -5.0670    6.1600 hc        1 MOL      0.073160
      7 N1          7.8700   -3.3660    3.2470 n         1 MOL     -0.562980
      8 C3          9.0910   -3.7790    2.4640 c3        1 MOL      0.163775
      9 C4          8.6480   -4.4050    1.0750 c         1 MOL      0.457300
     10 O2          7.4700   -4.7180    0.8880 o         1 MOL     -0.420347
     11 C5         10.0210   -2.5720    2.3550 c3        1 MOL     -0.124723
     12 C6          9.4240   -1.4490    1.5210 c         1 MOL      0.414545
     13 O3          9.4050   -1.4650    0.2680 o         1 MOL     -0.559854
     14 O4          8.8070   -0.5110    2.0840 o         1 MOL     -0.559854
     15 H4          7.2430   -2.7680    2.7390 hn        1 MOL      0.371527
     16 H5          9.6570   -4.5620    2.9800 h1        1 MOL      0.043705
     17 H6         10.9510   -2.9880    1.9870 hc        1 MOL      0.024529
     18 H7         10.2350   -2.1260    3.3320 hc        1 MOL      0.024529
     19 N2          9.6070   -4.6050    0.1020 n         1 MOL     -0.678359
     20 C7          9.3280   -5.1650   -1.1910 c3        1 MOL      0.477936
     21 C8          8.0550   -4.4840   -1.8750 c         1 MOL      0.264803
     22 O5          7.4620   -5.0980   -2.7400 o         1 MOL     -0.538703
     23 C9          9.2960   -6.7110   -1.1080 c3        1 MOL     -0.262925
     24 H8         10.5770   -4.4480    0.3650 hn        1 MOL      0.320457
     25 H9         10.0930   -4.9120   -1.9240 h1        1 MOL     -0.019965
     26 H10         8.7990   -7.1490   -0.2340 hc        1 MOL      0.060397
     27 H11         8.8070   -7.1060   -2.0030 hc        1 MOL      0.060397
     28 H12        10.3280   -7.0380   -1.1090 hc        1 MOL      0.060397
     29 N3          7.5980   -3.2900   -1.6160 n         1 MOL     -0.101957
     30 C10         6.3340   -2.7460   -2.1850 c3        1 MOL      0.277933
     31 C11         6.5690   -1.3360   -2.6770 c         1 MOL      0.430249
     32 O6          7.6060   -0.7090   -2.3220 o         1 MOL     -0.661156
     33 C12         5.1800   -2.8630   -1.1550 c3        1 MOL     -0.444599
     34 C13         5.5050   -1.9690    0.0730 c         1 MOL      0.624163
     35 O7          6.4920   -1.2840    0.1710 o         1 MOL     -0.626581
     36 O8          4.6830   -1.8600    1.0200 o         1 MOL     -0.626581
     37 H13         8.0960   -2.7390   -0.9350 hn        1 MOL      0.037888
     38 H14         6.0400   -3.4050   -3.0110 h1        1 MOL     -0.006856
     39 H15         5.0710   -3.9070   -0.8570 hc        1 MOL      0.142745
     40 H16         4.2780   -2.4780   -1.6400 hc        1 MOL      0.142745
     41 N4          5.6200   -0.7610   -3.4190 n         1 MOL     -0.324660
     42 C14         5.5240    0.6480   -3.7430 c3        1 MOL     -0.313341
     43 C15         5.2430    1.5510   -2.5280 c         1 MOL      0.645234
     44 O9          5.9340    1.5250   -1.5020 o         1 MOL     -0.480772
     45 H17         4.7990   -1.3150   -3.6140 hn        1 MOL      0.284181
     46 H18         4.6860    0.7410   -4.4390 h1        1 MOL      0.164541
     47 H19         6.4270    0.9280   -4.2770 h1        1 MOL      0.164541
     48 N5          4.3460    2.5250   -2.7780 n         1 MOL     -0.507045
     49 C16         4.2200    3.7710   -2.0030 c3        1 MOL     -0.016456
     50 C17         2.8500    3.8560   -1.3940 c         1 MOL      0.670690
     51 O10         1.8670    3.6360   -2.0890 o         1 MOL     -0.486138
     52 C18         4.4280    5.0390   -2.8500 c3        1 MOL     -0.483353
     53 C19         5.7540    5.0270   -3.5860 c         1 MOL      0.763022
     54 N6          6.8210    5.4330   -2.9430 n         1 MOL     -0.733527
     55 O11         5.9090    4.6060   -4.7400 o         1 MOL     -0.586585
     56 H20         3.8680    2.4820   -3.6680 hn        1 MOL      0.317024
     57 H21         4.9580    3.7220   -1.2070 h1        1 MOL      0.074355
     58 H22         4.3360    5.9890   -2.3260 hc        1 MOL      0.173008
     59 H23         3.5930    5.0930   -3.5440 hc        1 MOL      0.173008
     60 H24         6.7170    5.5420   -1.9370 hn        1 MOL      0.320821
     61 H25         7.6830    5.3880   -3.4700 hn        1 MOL      0.320821
     62 N7          2.7660    4.0960   -0.0950 n         1 MOL     -0.611112
     63 C20         1.5270    4.4430    0.5230 c3        1 MOL      0.073806
     64 C21         0.9650    5.8440    0.1980 c         1 MOL      0.432737
     65 O12         1.5190    6.5670   -0.6770 o         1 MOL     -0.522600
     66 H26         3.6200    4.2200    0.4340 hn        1 MOL      0.355819
     67 H27         1.4720    4.2070    1.5840 h1        1 MOL      0.089009
     68 H28         0.8370    3.6940    0.1560 h1        1 MOL      0.089009
     69 N8         -0.1890    6.3170    0.7560 n         1 MOL     -0.511732
     70 C22        -0.9940    5.5650    1.7300 c3        1 MOL      0.078510
     71 C23        -1.8850    4.5000    1.0580 c         1 MOL      0.582183
     72 O13        -2.1960    4.6230   -0.1330 o         1 MOL     -0.496607
     73 C24        -1.7660    6.4830    2.7550 c3        1 MOL      0.233046
     74 C25        -0.7750    7.5540    3.3340 c3        1 MOL     -0.252011
     75 O14        -2.9020    7.1770    2.1270 oh        1 MOL     -0.580993
     76 H29        -0.5460    7.1920    0.4130 hn        1 MOL      0.382012
     77 H30        -0.2830    5.0180    2.3490 h1        1 MOL      0.012023
     78 H31        -2.1620    5.9120    3.5890 h1        1 MOL      0.045440
     79 H32        -3.4530    7.4330    2.8690 ho        1 MOL      0.389484
     80 H33        -0.4590    8.2100    2.5320 hc        1 MOL      0.056750
     81 H34        -1.1710    8.0770    4.2070 hc        1 MOL      0.056750
     82 H35         0.0990    7.0760    3.7950 hc        1 MOL      0.056750
     83 N9         -2.1950    3.4520    1.8160 n         1 MOL     -0.550125
     84 C26        -2.9850    2.3100    1.3230 c3        1 MOL      0.003378
     85 C27        -3.9620    1.7590    2.4530 c         1 MOL      0.599778
     86 O15        -3.5330    1.4630    3.5660 o         1 MOL     -0.605833
     87 C28        -2.1920    1.2410    0.5980 c3        1 MOL     -0.118237
     88 C29        -0.9600    0.7100    1.3580 c3        1 MOL      0.423698
     89 C30        -1.8810    1.5760   -0.9120 c3        1 MOL     -0.360875
     90 C31        -0.2950   -0.5360    0.8040 c3        1 MOL     -0.151622
     91 H36        -1.8120    3.3780    2.7480 hn        1 MOL      0.269493
     92 H37        -3.7220    2.7530    0.6570 h1        1 MOL      0.166450
     93 H38        -2.9250    0.4380    0.5990 hc        1 MOL      0.020597
     94 H39        -1.1550    0.4310    2.3990 hc        1 MOL     -0.102003
     95 H40        -0.2810    1.5680    1.3680 hc        1 MOL     -0.102003
     96 H41        -1.2570    2.4670   -1.0110 hc        1 MOL      0.110781
     97 H42        -1.5380    0.7730   -1.5640 hc        1 MOL      0.110781
     98 H43        -2.8930    1.6940   -1.2940 hc        1 MOL      0.110781
     99 H44        -0.0880   -0.4680   -0.2620 hc        1 MOL      0.014152
    100 H45         0.5930   -0.7790    1.3750 hc        1 MOL      0.014152
    101 H46        -1.0490   -1.3280    0.8800 hc        1 MOL      0.014152
    102 N10        -5.2290    1.4990    2.2270 n         1 MOL     -0.455201
    103 C32        -5.9550    1.6760    0.9640 c3        1 MOL      0.206806
    104 C33        -7.1300    0.6260    0.9340 c         1 MOL      0.334168
    105 O16        -7.5320    0.0390    1.9390 o         1 MOL     -0.475468
    106 C34        -6.4970    3.1040    0.8480 c3        1 MOL     -0.235128
    107 C35        -7.1500    3.5290    2.1930 c         1 MOL      0.663212
    108 O17        -7.1060    4.7160    2.5260 o         1 MOL     -0.648685
    109 O18        -7.8030    2.7340    2.9420 o         1 MOL     -0.648685
    110 H47        -5.7990    1.2030    3.0150 hn        1 MOL      0.316903
    111 H48        -5.2560    1.4900    0.1460 h1        1 MOL      0.012382
    112 H49        -7.2150    3.2340    0.0380 hc        1 MOL      0.029942
    113 H50        -5.6600    3.7700    0.6750 hc        1 MOL      0.029942
    114 N11        -7.8990    0.6750   -0.1350 n         1 MOL     -0.303034
    115 C36        -9.0160   -0.2150   -0.3230 c3        1 MOL      0.277119
    116 C37        -8.8800   -0.9120   -1.6270 c         1 MOL      0.250123
    117 O19        -8.5530   -0.1970   -2.5380 o         1 MOL     -0.491765
    118 C38       -10.3080    0.6360   -0.2340 c3        1 MOL     -0.276002
    119 C39       -11.6060   -0.0510   -0.5390 ca        1 MOL      0.100792
    120 C40       -12.2440    0.0750   -1.7640 ca        1 MOL     -0.178163
    121 C41       -12.2430   -0.9800    0.4110 ca        1 MOL     -0.178163
    122 C42       -13.3230   -0.6770   -2.1790 ca        1 MOL     -0.093503
    123 C43       -13.2810   -1.8090    0.0030 ca        1 MOL     -0.093503
    124 C44       -13.8760   -1.5910   -1.2590 ca        1 MOL     -0.154516
    125 H51        -7.6620    1.2540   -0.9280 hn        1 MOL      0.275308
    126 H52        -9.0860   -0.9620    0.4680 h1        1 MOL      0.011176
    127 H53       -10.2050    1.5730   -0.7660 hc        1 MOL      0.115209
    128 H54       -10.4410    0.9740    0.7930 hc        1 MOL      0.115209
    129 H55       -11.8650    0.7270   -2.5290 ha        1 MOL      0.128295
    130 H56       -11.7900   -1.1470    1.3820 ha        1 MOL      0.128295
    131 H57       -13.8460   -0.5450   -3.1150 ha        1 MOL      0.096443
    132 H58       -13.8080   -2.4760    0.6620 ha        1 MOL      0.096443
    133 H59       -14.7630   -2.1610   -1.4780 ha        1 MOL      0.090182
    134 N12        -9.1130   -2.2310   -1.8400 n         1 MOL      0.039382
    135 C45        -9.4430   -3.1620   -0.7580 c3        1 MOL      0.220277
    136 C46        -8.2660   -3.5530    0.1400 c         1 MOL      0.384545
    137 O20        -8.4430   -3.7050    1.3530 o         1 MOL     -0.588250
    138 C47       -10.0490   -4.4340   -1.4180 c3        1 MOL     -0.131962
    139 C48        -9.3080   -4.4000   -2.7460 c3        1 MOL      0.068063
    140 C49        -9.0240   -2.9390   -3.0100 c3        1 MOL     -0.195648
    141 H60       -10.2260   -2.7370   -0.1280 h1        1 MOL     -0.005106
    142 H61        -9.8530   -5.3570   -0.8850 hc        1 MOL      0.021347
    143 H62       -11.1010   -4.2040   -1.5900 hc        1 MOL      0.021347
    144 H63        -8.3940   -4.9880   -2.7520 hc        1 MOL      0.008991
    145 H64        -9.8810   -4.8310   -3.5660 hc        1 MOL      0.008991
    146 H65        -8.0360   -2.9410   -3.4770 h1        1 MOL      0.068346
    147 H66        -9.7740   -2.5980   -3.7190 h1        1 MOL      0.068346
    148 N13        -7.0450   -3.6490   -0.3860 n         1 MOL     -0.174800
    149 C50        -5.8010   -3.7950    0.4540 c3        1 MOL      0.194426
    150 C51        -5.6870   -5.2860    0.6420 c         1 MOL      0.251313
    151 O21        -5.4960   -6.0120   -0.3870 o         1 MOL     -0.568396
    152 C52        -4.4590   -3.3050   -0.2910 c3        1 MOL     -0.072386
    153 C53        -4.3430   -1.7840   -0.4350 c3        1 MOL     -0.082036
    154 C54        -4.8890   -1.2730   -1.7840 c         1 MOL      0.655289
    155 O22        -4.6810   -0.1030   -2.2030 o         1 MOL     -0.664771
    156 O23        -5.6640   -2.0160   -2.4210 o         1 MOL     -0.664771
    157 H67        -6.9750   -3.4590   -1.3740 hn        1 MOL      0.174558
    158 H68        -5.8780   -3.3130    1.4330 h1        1 MOL      0.060296
    159 H69        -4.2440   -3.8450   -1.2210 hc        1 MOL      0.046224
    160 H70        -3.6080   -3.6400    0.3040 hc        1 MOL      0.046224
    161 H71        -3.3120   -1.4660   -0.3450 hc        1 MOL     -0.013357
    162 H72        -4.8840   -1.1560    0.2670 hc        1 MOL     -0.013357
    163 N14        -5.9530   -5.9190    1.7850 n         1 MOL     -0.180957
    164 C55        -6.2800   -5.4180    3.1030 c3        1 MOL     -0.179090
    165 H73        -6.9440   -4.5580    3.0100 h1        1 MOL      0.079898
    166 H74        -6.7770   -6.2000    3.6770 h1        1 MOL      0.079898
    167 H75        -5.3650   -5.1170    3.6150 h1        1 MOL      0.079898
    168 H76        -5.9860   -6.9270    1.7340 hn        1 MOL      0.229729
    169 Ca1         8.1290    0.7180   -0.1590 Ca        1 MOL      1.667968
    170 O24         9.3470    2.2240    1.7480 oh        1 MOL     -0.770498
    171 H77         9.2900    3.0070    2.2990 ho        1 MOL      0.364540
    172 H78        10.2720    1.9990    1.7460 ho        1 MOL      0.364540
    173 O25         8.2750    3.2630   -1.1160 oh        1 MOL     -0.770498
    174 H79         9.0170    3.6280   -0.6270 ho        1 MOL      0.364540
    175 H80         8.3460    3.6360   -1.9830 ho        1 MOL      0.364540
    176 O26         6.3830    2.1720    1.3460 oh        1 MOL     -0.770498
    177 H81         5.5000    1.8440    1.5420 ho        1 MOL      0.364540
    178 H82         6.2830    3.1270    1.3200 ho        1 MOL      0.364540
    179 O27        10.7170    1.0310   -0.4620 oh        1 MOL     -0.770498
    180 H83        11.2380    0.2450   -0.6450 ho        1 MOL      0.364540
    181 H84        11.3530    1.7010   -0.2420 ho        1 MOL      0.364540
@<TRIPOS>BOND
     1    1    2 1   
     2    1    4 1   
     3    1    5 1   
     4    1    6 1   
     5    2    3 2   
     6    2    7 1   
     7    7    8 1   
     8    7   15 1   
     9    8    9 1   
    10    8   11 1   
    11    8   16 1   
    12    9   10 2   
    13    9   19 1   
    14   11   12 1   
    15   11   17 1   
    16   11   18 1   
    17   12   13 1   
    18   12   14 1   
    19   19   20 1   
    20   19   24 1   
    21   20   21 1   
    22   20   23 1   
    23   20   25 1   
    24   21   22 2   
    25   21   29 1   
    26   23   26 1   
    27   23   27 1   
    28   23   28 1   
    29   29   30 1   
    30   29   37 1   
    31   30   31 1   
    32   30   33 1   
    33   30   38 1   
    34   31   32 2   
    35   31   41 1   
    36   33   34 1   
    37   33   39 1   
    38   33   40 1   
    39   34   35 1   
    40   34   36 1   
    41   41   42 1   
    42   41   45 1   
    43   42   43 1   
    44   42   46 1   
    45   42   47 1   
    46   43   44 2   
    47   43   48 1   
    48   48   49 1   
    49   48   56 1   
    50   49   50 1   
    51   49   52 1   
    52   49   57 1   
    53   50   51 2   
    54   50   62 1   
    55   52   53 1   
    56   52   58 1   
    57   52   59 1   
    58   53   54 1   
    59   53   55 2   
    60   54   60 1   
    61   54   61 1   
    62   62   63 1   
    63   62   66 1   
    64   63   64 1   
    65   63   67 1   
    66   63   68 1   
    67   64   65 2   
    68   64   69 1   
    69   69   70 1   
    70   69   76 1   
    71   70   71 1   
    72   70   73 1   
    73   70   77 1   
    74   71   72 2   
    75   71   83 1   
    76   73   74 1   
    77   73   75 1   
    78   73   78 1   
    79   74   80 1   
    80   74   81 1   
    81   74   82 1   
    82   75   79 1   
    83   83   84 1   
    84   83   91 1   
    85   84   85 1   
    86   84   87 1   
    87   84   92 1   
    88   85   86 2   
    89   85  102 1   
    90   87   88 1   
    91   87   89 1   
    92   87   93 1   
    93   88   90 1   
    94   88   94 1   
    95   88   95 1   
    96   89   96 1   
    97   89   97 1   
    98   89   98 1   
    99   90   99 1   
   100   90  100 1   
   101   90  101 1   
   102  102  103 1   
   103  102  110 1   
   104  103  104 1   
   105  103  106 1   
   106  103  111 1   
   107  104  105 2   
   108  104  114 1   
   109  106  107 1   
   110  106  112 1   
   111  106  113 1   
   112  107  108 1   
   113  107  109 1   
   114  114  115 1   
   115  114  125 1   
   116  115  116 1   
   117  115  118 1   
   118  115  126 1   
   119  116  117 2   
   120  116  134 1   
   121  118  119 1   
   122  118  127 1   
   123  118  128 1   
   124  119  120 ar  
   125  119  121 ar  
   126  120  122 ar  
   127  120  129 1   
   128  121  123 ar  
   129  121  130 1   
   130  122  124 ar  
   131  122  131 1   
   132  123  124 ar  
   133  123  132 1   
   134  124  133 1   
   135  134  135 1   
   136  134  140 1   
   137  135  136 1   
   138  135  138 1   
   139  135  141 1   
   140  136  137 2   
   141  136  148 1   
   142  138  139 1   
   143  138  142 1   
   144  138  143 1   
   145  139  140 1   
   146  139  144 1   
   147  139  145 1   
   148  140  146 1   
   149  140  147 1   
   150  148  149 1   
   151  148  157 1   
   152  149  150 1   
   153  149  152 1   
   154  149  158 1   
   155  150  151 2   
   156  150  163 1   
   157  152  153 1   
   158  152  159 1   
   159  152  160 1   
   160  153  154 1   
   161  153  161 1   
   162  153  162 1   
   163  154  155 1   
   164  154  156 1   
   165  163  164 1   
   166  163  168 1   
   167  164  165 1   
   168  164  166 1   
   169  164  167 1   
   170  170  171 1   
   171  170  172 1   
   172  173  174 1   
   173  173  175 1   
   174  176  177 1   
   175  176  178 1   
   176  179  180 1   
   177  179  181 1   
@<TRIPOS>SUBSTRUCTURE
     1 MOL         1 TEMP              0 ****  ****    0 ROOT
