@<TRIPOS>MOLECULE
MOL
  181   177     1     0     0
SMALL
resp


@<TRIPOS>ATOM
      1 C1          9.1410    7.8770   -1.3570 c3        1 MOL     -0.374685
      2 C2          8.1230    6.9380   -0.5810 c         1 MOL      0.669724
      3 O1          7.2630    7.3710    0.1040 o         1 MOL     -0.569189
      4 H1          9.0070    8.9080   -1.0280 hc        1 MOL      0.097220
      5 H2         10.1620    7.5590   -1.1460 hc        1 MOL      0.097220
      6 H3          8.9520    7.8120   -2.4290 hc        1 MOL      0.097220
      7 N1          8.2370    5.6300   -0.6520 n         1 MOL     -0.529562
      8 C3          9.1780    4.7870   -1.3840 c3        1 MOL      0.253714
      9 C4         10.2330    4.0270   -0.4740 c         1 MOL      0.432967
     10 O2         11.4170    3.7140   -0.8850 o         1 MOL     -0.572056
     11 C5          8.4570    3.8430   -2.3370 c3        1 MOL     -0.198489
     12 C6          7.5100    2.9140   -1.7410 c         1 MOL      0.574148
     13 O3          6.6770    2.4240   -2.5700 o         1 MOL     -0.647962
     14 O4          7.5600    2.4980   -0.5580 o         1 MOL     -0.647962
     15 H4          7.5890    5.0900   -0.0860 hn        1 MOL      0.304161
     16 H5          9.8310    5.3930   -2.0050 h1        1 MOL      0.003415
     17 H6          9.0990    3.2520   -2.9960 hc        1 MOL      0.064244
     18 H7          7.8670    4.4510   -3.0180 hc        1 MOL      0.064244
     19 N2          9.8970    3.7570    0.7760 n         1 MOL     -0.526055
     20 C7         10.8620    3.2140    1.7660 c3        1 MOL      0.368291
     21 C8         10.6390    1.7170    1.9490 c         1 MOL      0.302085
     22 O5         11.2920    1.1510    2.8080 o         1 MOL     -0.558756
     23 C9         10.7590    4.1390    3.0610 c3        1 MOL     -0.300522
     24 H8          8.9860    3.9840    1.1490 hn        1 MOL      0.295009
     25 H9         11.8880    3.3490    1.4070 h1        1 MOL      0.038827
     26 H10        11.1590    5.0930    2.7300 hc        1 MOL      0.081734
     27 H11         9.7240    4.2310    3.3910 hc        1 MOL      0.081734
     28 H12        11.3700    3.8020    3.9090 hc        1 MOL      0.081734
     29 N3          9.7440    1.1010    1.2400 n         1 MOL      0.012761
     30 C10         9.5310   -0.3870    1.2650 c3        1 MOL     -0.322604
     31 C11         9.0930   -0.9720   -0.1310 c         1 MOL      0.560201
     32 O6          8.5610   -0.3680   -1.0330 o         1 MOL     -0.506656
     33 C12         8.5390   -0.7120    2.3860 c3        1 MOL      0.027371
     34 C13         7.2110   -0.0200    2.2950 c         1 MOL      0.606070
     35 O7          6.9000    0.8730    3.0600 o         1 MOL     -0.657578
     36 O8          6.4680   -0.2970    1.3160 o         1 MOL     -0.657578
     37 H13         9.1450    1.6600    0.6590 hn        1 MOL      0.133610
     38 H14        10.4400   -0.8980    1.5850 h1        1 MOL      0.120948
     39 H15         8.9070   -0.3800    3.3580 hc        1 MOL      0.012741
     40 H16         8.4620   -1.7950    2.3300 hc        1 MOL      0.012741
     41 N4          9.1640   -2.3540   -0.1620 n         1 MOL     -0.441513
     42 C14         8.6480   -3.2570   -1.1910 c3        1 MOL     -0.276359
     43 C15         7.1560   -3.3290   -1.2190 c         1 MOL      0.800156
     44 O9          6.4030   -2.4120   -0.8950 o         1 MOL     -0.589193
     45 H17         9.4450   -2.7840    0.7050 hn        1 MOL      0.321362
     46 H18         9.1120   -4.2220   -1.0080 h1        1 MOL      0.139314
     47 H19         9.0730   -2.9210   -2.1310 h1        1 MOL      0.139314
     48 N5          6.5870   -4.4600   -1.7180 n         1 MOL     -0.765897
     49 C16         5.1740   -4.5810   -2.2210 c3        1 MOL      0.502502
     50 C17         4.2380   -5.0190   -1.0390 c         1 MOL      0.615205
     51 O10         4.5150   -5.8700   -0.2290 o         1 MOL     -0.543739
     52 C18         5.1570   -5.6260   -3.3040 c3        1 MOL     -0.379228
     53 C19         3.7350   -5.6950   -4.0470 c         1 MOL      0.616464
     54 N6          3.5350   -6.6540   -4.8110 n         1 MOL     -0.713206
     55 O11         2.8580   -4.8700   -3.9650 o         1 MOL     -0.513862
     56 H20         7.2580   -5.0930   -2.1320 hn        1 MOL      0.293199
     57 H21         4.9450   -3.6100   -2.6700 h1        1 MOL     -0.034784
     58 H22         5.2880   -6.5870   -2.8130 hc        1 MOL      0.081937
     59 H23         5.9720   -5.4510   -4.0050 hc        1 MOL      0.081937
     60 H24         4.1780   -7.4270   -4.7540 hn        1 MOL      0.357155
     61 H25         2.6210   -6.6870   -5.2350 hn        1 MOL      0.357155
     62 N7          3.0030   -4.4190   -1.0580 n         1 MOL     -0.523092
     63 C20         1.8770   -4.4570   -0.1130 c3        1 MOL      0.002811
     64 C21         1.8890   -3.4080    1.0200 c         1 MOL      0.809307
     65 O12         2.7710   -2.5670    0.9730 o         1 MOL     -0.628939
     66 H26         2.8260   -3.8120   -1.8490 hn        1 MOL      0.235953
     67 H27         1.7610   -5.4380    0.3450 h1        1 MOL      0.092392
     68 H28         0.9610   -4.4190   -0.6990 h1        1 MOL      0.092392
     69 N8          0.8500   -3.3440    1.8770 n         1 MOL     -0.792168
     70 C22        -0.3260   -4.2890    1.9110 c3        1 MOL      0.031118
     71 C23        -1.6970   -3.6540    1.8030 c         1 MOL      0.560528
     72 O13        -2.6620   -4.3070    1.4300 o         1 MOL     -0.535252
     73 C24        -0.1440   -5.1590    3.2020 c3        1 MOL      0.404152
     74 C25        -1.1360   -6.3060    3.4070 c3        1 MOL     -0.474412
     75 O14         1.1580   -5.7980    3.0550 oh        1 MOL     -0.587777
     76 H29         1.0100   -2.6800    2.6190 hn        1 MOL      0.383858
     77 H30        -0.3040   -4.9660    1.0520 h1        1 MOL      0.083062
     78 H31        -0.1720   -4.5230    4.0900 h1        1 MOL      0.003861
     79 H32         1.6700   -5.5030    3.8220 ho        1 MOL      0.365632
     80 H33        -2.1160   -6.0510    3.8110 hc        1 MOL      0.121793
     81 H34        -1.5300   -6.7260    2.4800 hc        1 MOL      0.121793
     82 H35        -0.6100   -7.0870    3.9640 hc        1 MOL      0.121793
     83 N9         -1.8490   -2.2940    2.0790 n         1 MOL     -0.430202
     84 C26        -3.1180   -1.6510    2.2510 c3        1 MOL      0.024874
     85 C27        -3.2740   -0.5560    1.1600 c         1 MOL      0.527581
     86 O15        -2.6360    0.4320    1.2760 o         1 MOL     -0.534866
     87 C28        -3.2340   -1.0920    3.6900 c3        1 MOL      0.069762
     88 C29        -2.9240   -2.1220    4.8760 c3        1 MOL     -0.095762
     89 C30        -4.7170   -0.5950    3.9080 c3        1 MOL     -0.112565
     90 C31        -3.8790   -3.3200    4.8760 c3        1 MOL      0.046045
     91 H36        -1.0360   -1.7190    2.2500 hn        1 MOL      0.265676
     92 H37        -3.9260   -2.3700    2.0560 h1        1 MOL      0.140153
     93 H38        -2.5510   -0.2520    3.8180 hc        1 MOL      0.052377
     94 H39        -3.0850   -1.5620    5.7940 hc        1 MOL      0.005206
     95 H40        -1.9200   -2.5450    4.8360 hc        1 MOL      0.005206
     96 H41        -4.8510    0.3540    3.3960 hc        1 MOL      0.043231
     97 H42        -5.4930   -1.3470    3.7580 hc        1 MOL      0.043231
     98 H43        -4.7160   -0.2540    4.9350 hc        1 MOL      0.043231
     99 H44        -4.8900   -3.1230    5.2180 hc        1 MOL     -0.026366
    100 H45        -3.9330   -3.7620    3.8820 hc        1 MOL     -0.026366
    101 H46        -3.4000   -4.0960    5.4680 hc        1 MOL     -0.026366
    102 N10        -4.2220   -0.6060    0.2270 n         1 MOL     -0.385909
    103 C32        -5.3880   -1.4600   -0.0520 c3        1 MOL     -0.111988
    104 C33        -6.5890   -0.6470   -0.5570 c         1 MOL      0.662174
    105 O16        -6.4910    0.4880   -1.0450 o         1 MOL     -0.490882
    106 C34        -5.0470   -2.4440   -1.1370 c3        1 MOL     -0.086104
    107 C35        -4.5100   -1.8010   -2.3490 c         1 MOL      0.667078
    108 O17        -3.2420   -1.5950   -2.3960 o         1 MOL     -0.721741
    109 O18        -5.3210   -1.4480   -3.2210 o         1 MOL     -0.721741
    110 H47        -4.2740    0.1180   -0.4640 hn        1 MOL      0.311465
    111 H48        -5.6660   -2.0420    0.8200 h1        1 MOL      0.051739
    112 H49        -5.8480   -3.0970   -1.5030 hc        1 MOL     -0.005825
    113 H50        -4.2840   -3.1130   -0.7300 hc        1 MOL     -0.005825
    114 N11        -7.7150   -1.2210   -0.3930 n         1 MOL     -0.584871
    115 C36        -9.0260   -0.6560   -0.7390 c3        1 MOL      0.342297
    116 C37        -9.5180    0.1490    0.4980 c         1 MOL      0.298566
    117 O19        -9.2280   -0.3120    1.6270 o         1 MOL     -0.521942
    118 C38       -10.0440   -1.7800   -1.0570 c3        1 MOL     -0.122583
    119 C39       -11.4190   -1.2930   -1.5600 ca        1 MOL      0.096207
    120 C40       -12.3790   -0.8520   -0.5770 ca        1 MOL     -0.210984
    121 C41       -11.7080   -1.2120   -2.9190 ca        1 MOL     -0.210984
    122 C42       -13.5640   -0.2870   -1.0310 ca        1 MOL     -0.034032
    123 C43       -12.8440   -0.5530   -3.3490 ca        1 MOL     -0.034032
    124 C44       -13.8100   -0.1240   -2.4010 ca        1 MOL     -0.224683
    125 H51        -7.7370   -2.1460    0.0250 hn        1 MOL      0.302526
    126 H52        -8.8970    0.0020   -1.5980 h1        1 MOL      0.010436
    127 H53       -10.2980   -2.3720   -0.1740 hc        1 MOL      0.044796
    128 H54        -9.5730   -2.5130   -1.7050 hc        1 MOL      0.044796
    129 H55       -12.2850   -0.9680    0.4920 ha        1 MOL      0.139141
    130 H56       -10.9450   -1.4910   -3.6230 ha        1 MOL      0.139141
    131 H57       -14.3950   -0.0540   -0.3690 ha        1 MOL      0.090925
    132 H58       -12.9440   -0.3830   -4.4090 ha        1 MOL      0.090925
    133 H59       -14.6710    0.4480   -2.7120 ha        1 MOL      0.119718
    134 N12       -10.2220    1.2980    0.3430 n         1 MOL     -0.012169
    135 C45       -10.3470    2.0710   -0.8020 c3        1 MOL     -0.150482
    136 C46        -9.1920    3.0370   -1.0460 c         1 MOL      0.676667
    137 O20        -9.0960    3.5560   -2.0960 o         1 MOL     -0.608204
    138 C47       -11.7200    2.7730   -0.5300 c3        1 MOL     -0.047266
    139 C48       -11.6190    3.2370    0.8930 c3        1 MOL     -0.000180
    140 C49       -10.9170    1.9860    1.5030 c3        1 MOL     -0.033926
    141 H60       -10.5160    1.4510   -1.6840 h1        1 MOL      0.096383
    142 H61       -11.9280    3.5840   -1.2200 hc        1 MOL      0.019710
    143 H62       -12.4930    2.0090   -0.6450 hc        1 MOL      0.019710
    144 H63       -11.0350    4.1480    1.0150 hc        1 MOL      0.019421
    145 H64       -12.5700    3.4170    1.3990 hc        1 MOL      0.019421
    146 H65       -10.1310    2.3510    2.1640 h1        1 MOL      0.038372
    147 H66       -11.5920    1.3290    2.0480 h1        1 MOL      0.038372
    148 N13        -8.1640    3.0800   -0.1660 n         1 MOL     -0.555233
    149 C50        -6.9400    3.8120   -0.3320 c3        1 MOL      0.309884
    150 C51        -7.0020    5.2310   -0.8860 c         1 MOL      0.388122
    151 O21        -7.1270    6.1940   -0.1430 o         1 MOL     -0.552118
    152 C52        -6.3140    3.8930    1.0580 c3        1 MOL      0.105302
    153 C53        -5.8580    2.6420    1.7990 c3        1 MOL     -0.248918
    154 C54        -5.4480    3.0110    3.2440 c         1 MOL      0.747147
    155 O22        -6.2950    3.2280    4.1080 o         1 MOL     -0.740765
    156 O23        -4.2220    3.1330    3.4790 o         1 MOL     -0.740765
    157 H67        -8.3360    2.4840    0.6280 hn        1 MOL      0.330947
    158 H68        -6.2880    3.1620   -0.9220 h1        1 MOL     -0.011934
    159 H69        -6.9260    4.5260    1.6930 hc        1 MOL     -0.013202
    160 H70        -5.4020    4.4450    0.8430 hc        1 MOL     -0.013202
    161 H71        -4.9510    2.2100    1.3800 hc        1 MOL      0.007595
    162 H72        -6.6490    1.8950    1.7580 hc        1 MOL      0.007595
    163 N14        -6.9930    5.4980   -2.2150 n         1 MOL     -0.292230
    164 C55        -6.4870    4.5590   -3.2850 c3        1 MOL     -0.200962
    165 H73        -6.4310    3.5480   -2.8830 h1        1 MOL      0.095207
    166 H74        -7.1700    4.5740   -4.1350 h1        1 MOL      0.095207
    167 H75        -5.4970    4.8760   -3.6090 h1        1 MOL      0.095207
    168 H76        -7.2220    6.4430   -2.5080 hn        1 MOL      0.248124
    169 Ca1         5.9500    0.4800   -0.9820 Ca        1 MOL      1.735193
    170 O24         3.5800   -0.9330   -0.9890 oh        1 MOL     -0.850423
    171 H77         2.7880   -0.8880   -1.5260 ho        1 MOL      0.414572
    172 H78         3.3300   -1.4750   -0.2470 ho        1 MOL      0.414572
    173 O25         4.5240    2.0800    0.7990 oh        1 MOL     -0.850423
    174 H79         4.6470    1.7440    1.6820 ho        1 MOL      0.414572
    175 H80         3.9100    2.8070    0.9080 ho        1 MOL      0.414572
    176 O26         3.5850    1.5230   -2.2790 oh        1 MOL     -0.850423
    177 H81         3.2410    2.0640   -2.9930 ho        1 MOL      0.414572
    178 H82         2.7990    1.2350   -1.8040 ho        1 MOL      0.414572
    179 O27         6.5930   -0.6070   -3.3350 oh        1 MOL     -0.850423
    180 H83         6.9860   -1.4000   -3.6890 ho        1 MOL      0.414572
    181 H84         6.6380    0.0260   -4.0560 ho        1 MOL      0.414572
@<TRIPOS>BOND
     1    1    2 1   
     2    1    4 1   
     3    1    5 1   
     4    1    6 1   
     5    2    3 2   
     6    2    7 1   
     7    7    8 1   
     8    7   15 1   
     9    8    9 1   
    10    8   11 1   
    11    8   16 1   
    12    9   10 2   
    13    9   19 1   
    14   11   12 1   
    15   11   17 1   
    16   11   18 1   
    17   12   13 1   
    18   12   14 1   
    19   19   20 1   
    20   19   24 1   
    21   20   21 1   
    22   20   23 1   
    23   20   25 1   
    24   21   22 2   
    25   21   29 1   
    26   23   26 1   
    27   23   27 1   
    28   23   28 1   
    29   29   30 1   
    30   29   37 1   
    31   30   31 1   
    32   30   33 1   
    33   30   38 1   
    34   31   32 2   
    35   31   41 1   
    36   33   34 1   
    37   33   39 1   
    38   33   40 1   
    39   34   35 1   
    40   34   36 1   
    41   41   42 1   
    42   41   45 1   
    43   42   43 1   
    44   42   46 1   
    45   42   47 1   
    46   43   44 2   
    47   43   48 1   
    48   48   49 1   
    49   48   56 1   
    50   49   50 1   
    51   49   52 1   
    52   49   57 1   
    53   50   51 2   
    54   50   62 1   
    55   52   53 1   
    56   52   58 1   
    57   52   59 1   
    58   53   54 1   
    59   53   55 2   
    60   54   60 1   
    61   54   61 1   
    62   62   63 1   
    63   62   66 1   
    64   63   64 1   
    65   63   67 1   
    66   63   68 1   
    67   64   65 2   
    68   64   69 1   
    69   69   70 1   
    70   69   76 1   
    71   70   71 1   
    72   70   73 1   
    73   70   77 1   
    74   71   72 2   
    75   71   83 1   
    76   73   74 1   
    77   73   75 1   
    78   73   78 1   
    79   74   80 1   
    80   74   81 1   
    81   74   82 1   
    82   75   79 1   
    83   83   84 1   
    84   83   91 1   
    85   84   85 1   
    86   84   87 1   
    87   84   92 1   
    88   85   86 2   
    89   85  102 1   
    90   87   88 1   
    91   87   89 1   
    92   87   93 1   
    93   88   90 1   
    94   88   94 1   
    95   88   95 1   
    96   89   96 1   
    97   89   97 1   
    98   89   98 1   
    99   90   99 1   
   100   90  100 1   
   101   90  101 1   
   102  102  103 1   
   103  102  110 1   
   104  103  104 1   
   105  103  106 1   
   106  103  111 1   
   107  104  105 2   
   108  104  114 1   
   109  106  107 1   
   110  106  112 1   
   111  106  113 1   
   112  107  108 1   
   113  107  109 1   
   114  114  115 1   
   115  114  125 1   
   116  115  116 1   
   117  115  118 1   
   118  115  126 1   
   119  116  117 2   
   120  116  134 1   
   121  118  119 1   
   122  118  127 1   
   123  118  128 1   
   124  119  120 ar  
   125  119  121 ar  
   126  120  122 ar  
   127  120  129 1   
   128  121  123 ar  
   129  121  130 1   
   130  122  124 ar  
   131  122  131 1   
   132  123  124 ar  
   133  123  132 1   
   134  124  133 1   
   135  134  135 1   
   136  134  140 1   
   137  135  136 1   
   138  135  138 1   
   139  135  141 1   
   140  136  137 2   
   141  136  148 1   
   142  138  139 1   
   143  138  142 1   
   144  138  143 1   
   145  139  140 1   
   146  139  144 1   
   147  139  145 1   
   148  140  146 1   
   149  140  147 1   
   150  148  149 1   
   151  148  157 1   
   152  149  150 1   
   153  149  152 1   
   154  149  158 1   
   155  150  151 2   
   156  150  163 1   
   157  152  153 1   
   158  152  159 1   
   159  152  160 1   
   160  153  154 1   
   161  153  161 1   
   162  153  162 1   
   163  154  155 1   
   164  154  156 1   
   165  163  164 1   
   166  163  168 1   
   167  164  165 1   
   168  164  166 1   
   169  164  167 1   
   170  170  171 1   
   171  170  172 1   
   172  173  174 1   
   173  173  175 1   
   174  176  177 1   
   175  176  178 1   
   176  179  180 1   
   177  179  181 1   
@<TRIPOS>SUBSTRUCTURE
     1 MOL         1 TEMP              0 ****  ****    0 ROOT
