@<TRIPOS>MOLECULE
MOL
  175   173     1     0     0
SMALL
resp


@<TRIPOS>ATOM
      1 C1         -7.0480    7.6230    2.1830 c3        1 MOL     -0.399451
      2 C2         -7.7140    6.9740    0.9710 c         1 MOL      0.706187
      3 O1         -7.5910    7.4410   -0.1660 o         1 MOL     -0.590716
      4 H1         -6.8800    6.8690    2.9520 hc        1 MOL      0.094955
      5 H2         -6.0930    8.0560    1.8860 hc        1 MOL      0.094955
      6 H3         -7.6950    8.4060    2.5780 hc        1 MOL      0.094955
      7 N1         -8.3620    5.7990    1.1280 n         1 MOL     -0.587097
      8 C3         -9.1500    5.0850    0.0890 c3        1 MOL      0.224911
      9 C4         -8.2250    4.1090   -0.6360 c         1 MOL      0.489647
     10 O2         -8.4440    3.9320   -1.8430 o         1 MOL     -0.486886
     11 C5        -10.3880    4.4480    0.7250 c3        1 MOL     -0.295479
     12 C6        -11.1210    3.5670   -0.3390 c         1 MOL      0.634699
     13 O3        -11.9120    4.1130   -1.1450 o         1 MOL     -0.690386
     14 O4        -10.7710    2.3230   -0.4460 o         1 MOL     -0.690386
     15 H4         -8.4280    5.4510    2.0700 hn        1 MOL      0.288358
     16 H5         -9.5280    5.9020   -0.5280 h1        1 MOL      0.080443
     17 H6        -11.0510    5.2090    1.1390 hc        1 MOL      0.031223
     18 H7        -10.0850    3.8320    1.5720 hc        1 MOL      0.031223
     19 N2         -7.1660    3.6580    0.0220 n         1 MOL     -0.450275
     20 C7         -6.0910    2.8770   -0.7020 c3        1 MOL      0.084523
     21 C8         -5.1680    2.1370    0.3000 c         1 MOL      0.507087
     22 O5         -4.6620    2.6620    1.2680 o         1 MOL     -0.528908
     23 C9         -5.3070    3.8840   -1.6380 c3        1 MOL     -0.230373
     24 H8         -7.0250    3.6390    1.0230 hn        1 MOL      0.266842
     25 H9         -6.6040    2.1560   -1.3300 h1        1 MOL      0.075482
     26 H10        -4.4000    3.4580   -2.0800 hc        1 MOL      0.085871
     27 H11        -5.9660    4.1090   -2.4780 hc        1 MOL      0.085871
     28 H12        -5.1370    4.7960   -1.0800 hc        1 MOL      0.085871
     29 N3         -4.7370    0.8840    0.0780 n         1 MOL     -0.417367
     30 C10        -5.0940    0.0200   -1.1290 c3        1 MOL     -0.022814
     31 C11        -5.3010   -1.4550   -0.7030 c         1 MOL      0.380335
     32 O6         -4.6030   -2.0220    0.0890 o         1 MOL     -0.452611
     33 C12        -3.9790    0.1330   -2.1660 c3        1 MOL     -0.129894
     34 C13        -2.6090   -0.3120   -1.7420 c         1 MOL      0.755577
     35 O7         -1.9080    0.4650   -1.0560 o         1 MOL     -0.712343
     36 O8         -2.1720   -1.3960   -2.1410 o         1 MOL     -0.712343
     37 H13        -4.2060    0.3940    0.7840 hn        1 MOL      0.294896
     38 H14        -6.0690    0.3350   -1.5040 h1        1 MOL      0.071421
     39 H15        -3.8290    1.1990   -2.3600 hc        1 MOL      0.029018
     40 H16        -4.2730   -0.3490   -3.0990 hc        1 MOL      0.029018
     41 N4         -6.1990   -2.1830   -1.3580 n         1 MOL     -0.346994
     42 C14        -6.5970   -3.5670   -1.0040 c3        1 MOL      0.083786
     43 C15        -6.2450   -4.5090   -2.1630 c         1 MOL      0.493425
     44 O9         -7.1280   -4.9630   -2.9290 o         1 MOL     -0.578286
     45 H17        -6.7110   -1.7160   -2.0860 hn        1 MOL      0.299612
     46 H18        -7.6840   -3.5420   -0.9470 h1        1 MOL      0.042488
     47 H19        -6.1550   -3.9060   -0.0640 h1        1 MOL      0.042488
     48 N5         -5.0460   -4.8940   -2.4010 n         1 MOL     -0.407399
     49 C16        -3.9090   -4.6000   -1.5920 c3        1 MOL     -0.093797
     50 C17        -3.8730   -5.4000   -0.2700 c         1 MOL      0.539126
     51 O10        -4.0410   -6.6160   -0.1910 o         1 MOL     -0.531067
     52 C18        -2.6690   -5.0240   -2.4030 c3        1 MOL     -0.045805
     53 C19        -1.3940   -4.5410   -1.7940 c         1 MOL      0.439601
     54 N6         -0.2150   -4.8960   -2.2730 n         1 MOL     -0.645261
     55 O11        -1.3360   -3.7770   -0.8500 o         1 MOL     -0.560477
     56 H20        -4.9270   -5.5790   -3.1330 hn        1 MOL      0.308128
     57 H21        -3.7260   -3.5310   -1.4970 h1        1 MOL      0.126688
     58 H22        -2.7610   -4.6120   -3.4020 hc        1 MOL      0.062949
     59 H23        -2.6860   -6.0900   -2.6170 hc        1 MOL      0.062949
     60 H24        -0.2090   -5.4130   -3.1330 hn        1 MOL      0.320805
     61 H25         0.6380   -4.4930   -1.9060 hn        1 MOL      0.320805
     62 N7         -3.6670   -4.6690    0.8640 n         1 MOL     -0.244789
     63 C20        -3.3260   -5.1890    2.1590 c3        1 MOL     -0.223395
     64 C21        -1.8370   -5.4440    2.3970 c         1 MOL      0.588407
     65 O12        -1.6620   -6.2950    3.3020 o         1 MOL     -0.607771
     66 H26        -3.7230   -3.6750    0.6960 hn        1 MOL      0.222807
     67 H27        -3.9110   -6.0520    2.4600 h1        1 MOL      0.111307
     68 H28        -3.5580   -4.3910    2.8770 h1        1 MOL      0.111307
     69 N8         -0.8970   -5.0080    1.6330 n         1 MOL     -0.392719
     70 C22         0.5760   -5.2740    1.8040 c3        1 MOL      0.015654
     71 C23         1.2970   -3.9500    1.9050 c         1 MOL      0.461687
     72 O13         0.9130   -2.9580    1.3140 o         1 MOL     -0.520441
     73 C24         1.1690   -6.1120    0.6630 c3        1 MOL      0.488401
     74 C25         2.3850   -6.9410    1.1940 c3        1 MOL     -0.419048
     75 O14         0.1460   -7.0550    0.2470 oh        1 MOL     -0.583893
     76 H29        -1.2150   -4.4420    0.8610 hn        1 MOL      0.335401
     77 H30         0.7180   -5.8460    2.7170 h1        1 MOL      0.060869
     78 H31         1.4360   -5.4600   -0.1680 h1        1 MOL     -0.060319
     79 H32         0.5070   -7.6830   -0.3750 ho        1 MOL      0.353162
     80 H33         3.2880   -6.3400    1.3440 hc        1 MOL      0.097061
     81 H34         2.1950   -7.3810    2.1680 hc        1 MOL      0.097061
     82 H35         2.7550   -7.6750    0.4820 hc        1 MOL      0.097061
     83 N9          2.3900   -3.9280    2.7080 n         1 MOL     -0.392857
     84 C26         3.3440   -2.7750    2.7650 c3        1 MOL      0.002853
     85 C27         4.3830   -2.9050    1.6240 c         1 MOL      0.456009
     86 O15         5.0140   -3.9570    1.4970 o         1 MOL     -0.557618
     87 C28         4.1460   -2.7960    4.0630 c3        1 MOL     -0.005018
     88 C29         5.0230   -1.5280    4.1910 c3        1 MOL     -0.101310
     89 C30         3.1400   -2.7160    5.2200 c3        1 MOL     -0.161510
     90 C31         4.4120   -0.1180    4.1750 c3        1 MOL     -0.241522
     91 H36         2.7920   -4.7120    3.2190 hn        1 MOL      0.293449
     92 H37         2.8250   -1.8290    2.6540 h1        1 MOL      0.141605
     93 H38         4.6220   -3.7710    4.2220 hc        1 MOL      0.048009
     94 H39         5.8320   -1.4950    3.4490 hc        1 MOL      0.037320
     95 H40         5.5510   -1.5590    5.1490 hc        1 MOL      0.037320
     96 H41         2.3090   -2.0360    5.0350 hc        1 MOL      0.044972
     97 H42         2.5940   -3.6510    5.3540 hc        1 MOL      0.044972
     98 H43         3.5490   -2.4140    6.1790 hc        1 MOL      0.044972
     99 H44         4.9930    0.6570    4.6880 hc        1 MOL      0.084347
    100 H45         4.1600    0.0900    3.1360 hc        1 MOL      0.084347
    101 H46         3.4960   -0.1130    4.7510 hc        1 MOL      0.084347
    102 N10         4.4730   -1.9770    0.6130 n         1 MOL     -0.288791
    103 C32         5.1160   -2.2850   -0.7020 c3        1 MOL     -0.044938
    104 C33         5.7520   -1.1070   -1.4040 c         1 MOL      0.441635
    105 O16         6.1180   -1.1110   -2.5990 o         1 MOL     -0.478922
    106 C34         4.1170   -3.0450   -1.6130 c3        1 MOL     -0.179101
    107 C35         2.8370   -2.2300   -2.0620 c         1 MOL      0.612991
    108 O17         1.7330   -2.6870   -1.6250 o         1 MOL     -0.626211
    109 O18         2.8260   -1.2510   -2.8650 o         1 MOL     -0.626211
    110 H47         3.8350   -1.1930    0.7390 hn        1 MOL      0.267156
    111 H48         5.8990   -3.0030   -0.4780 h1        1 MOL      0.114492
    112 H49         3.7760   -3.8990   -1.0080 hc        1 MOL      0.068922
    113 H50         4.6310   -3.4410   -2.4880 hc        1 MOL      0.068922
    114 N11         5.9130   -0.0490   -0.5850 n         1 MOL     -0.480964
    115 C36         6.5900    1.2510   -0.9120 c3        1 MOL      0.412719
    116 C37         6.1260    2.4330   -0.0540 c         1 MOL      0.252901
    117 O19         5.9160    2.3890    1.1270 o         1 MOL     -0.473159
    118 C38         8.1340    1.1500   -0.8590 c3        1 MOL     -0.159802
    119 C39         8.9450    1.6700   -2.0900 ca        1 MOL      0.090396
    120 C40         9.6750    2.8530   -1.8850 ca        1 MOL     -0.176428
    121 C41         8.8700    1.1690   -3.3930 ca        1 MOL     -0.176428
    122 C42        10.2860    3.6410   -2.9590 ca        1 MOL     -0.097718
    123 C43         9.4680    1.8630   -4.4520 ca        1 MOL     -0.097718
    124 C44        10.2380    3.0290   -4.2230 ca        1 MOL     -0.148542
    125 H51         5.7600   -0.2470    0.3880 hn        1 MOL      0.236488
    126 H52         6.2980    1.3200   -1.9600 h1        1 MOL      0.036689
    127 H53         8.3940    0.1020   -0.7330 hc        1 MOL      0.054934
    128 H54         8.5480    1.5580    0.0660 hc        1 MOL      0.054934
    129 H55         9.6020    3.2720   -0.8910 ha        1 MOL      0.121057
    130 H56         8.2760    0.2950   -3.6380 ha        1 MOL      0.121057
    131 H57        10.8920    4.5290   -2.8380 ha        1 MOL      0.115345
    132 H58         9.3120    1.4180   -5.4290 ha        1 MOL      0.115345
    133 H59        10.6350    3.5800   -5.0520 ha        1 MOL      0.104340
    134 N12         6.2290    3.6490   -0.6390 n         1 MOL     -0.031234
    135 C45         6.0610    4.9340    0.0750 c3        1 MOL     -0.142193
    136 C46         4.7150    5.2870    0.6630 c         1 MOL      0.463670
    137 O20         4.5210    6.4300    1.1020 o         1 MOL     -0.532913
    138 C47         6.5310    6.0020   -0.9610 c3        1 MOL     -0.042884
    139 C48         5.9490    5.4260   -2.2500 c3        1 MOL      0.077453
    140 C49         6.2370    3.9630   -2.0680 c3        1 MOL     -0.459111
    141 H60         6.8300    4.9160    0.8420 h1        1 MOL      0.093319
    142 H61         6.1790    7.0070   -0.7770 hc        1 MOL      0.044281
    143 H62         7.6140    5.9040   -1.0860 hc        1 MOL      0.044281
    144 H63         4.8580    5.5080   -2.1950 hc        1 MOL      0.032720
    145 H64         6.3830    5.8720   -3.1440 hc        1 MOL      0.032720
    146 H65         5.4760    3.3620   -2.5660 h1        1 MOL      0.164450
    147 H66         7.2120    3.6970   -2.4750 h1        1 MOL      0.164450
    148 N13         3.8050    4.3070    0.7460 n         1 MOL     -0.081661
    149 C50         2.4070    4.4850    1.1540 c3        1 MOL     -0.327436
    150 C51         2.2020    4.7680    2.6610 c         1 MOL      0.462392
    151 O21         1.1960    5.3930    3.1040 o         1 MOL     -0.521841
    152 C52         1.6720    3.1990    0.8210 c3        1 MOL      0.036348
    153 C53         2.1670    1.8930    1.4420 c3        1 MOL      0.148527
    154 C54         1.4680    0.6540    0.8780 c         1 MOL      0.500359
    155 O22         2.0610   -0.1120    0.0910 o         1 MOL     -0.646109
    156 O23         0.3140    0.4280    1.2260 o         1 MOL     -0.646109
    157 H67         4.0230    3.5080    0.1630 hn        1 MOL      0.225046
    158 H68         1.9620    5.2810    0.5480 h1        1 MOL      0.163911
    159 H69         1.7620    3.1590   -0.2570 hc        1 MOL      0.041943
    160 H70         0.6100    3.2340    1.0860 hc        1 MOL      0.041943
    161 H71         2.1480    1.8880    2.5400 hc        1 MOL     -0.088700
    162 H72         3.2270    1.8640    1.2170 hc        1 MOL     -0.088700
    163 N14         3.2000    4.4710    3.5080 n         1 MOL     -0.073927
    164 C55         3.2630    4.7060    4.9110 c3        1 MOL     -0.183185
    165 H73         4.3040    4.6990    5.2330 h1        1 MOL      0.079384
    166 H74         2.8190    5.6750    5.1370 h1        1 MOL      0.079384
    167 H75         2.7160    3.9240    5.4360 h1        1 MOL      0.079384
    168 H76         3.9510    4.0270    3.0000 hn        1 MOL      0.133703
    169 Ca1        -0.2120   -1.4310   -0.4650 Ca        1 MOL      1.716185
    170 O24         0.4920   -0.3850   -2.7570 oh        1 MOL     -0.932040
    171 H77         1.4160   -0.6000   -2.8420 ho        1 MOL      0.419134
    172 H78         0.2470   -0.0240   -3.6080 ho        1 MOL      0.419134
    173 O25        -2.2340   -1.6440    1.2720 oh        1 MOL     -0.932040
    174 H79        -3.1480   -1.9030    1.2050 ho        1 MOL      0.419134
    175 H80        -2.2470   -0.8540    1.8110 ho        1 MOL      0.419134
@<TRIPOS>BOND
     1    1    2 1   
     2    1    4 1   
     3    1    5 1   
     4    1    6 1   
     5    2    3 2   
     6    2    7 1   
     7    7    8 1   
     8    7   15 1   
     9    8    9 1   
    10    8   11 1   
    11    8   16 1   
    12    9   10 2   
    13    9   19 1   
    14   11   12 1   
    15   11   17 1   
    16   11   18 1   
    17   12   13 1   
    18   12   14 1   
    19   19   20 1   
    20   19   24 1   
    21   20   21 1   
    22   20   23 1   
    23   20   25 1   
    24   21   22 2   
    25   21   29 1   
    26   23   26 1   
    27   23   27 1   
    28   23   28 1   
    29   29   30 1   
    30   29   37 1   
    31   30   31 1   
    32   30   33 1   
    33   30   38 1   
    34   31   32 2   
    35   31   41 1   
    36   33   34 1   
    37   33   39 1   
    38   33   40 1   
    39   34   35 1   
    40   34   36 1   
    41   41   42 1   
    42   41   45 1   
    43   42   43 1   
    44   42   46 1   
    45   42   47 1   
    46   43   44 2   
    47   43   48 1   
    48   48   49 1   
    49   48   56 1   
    50   49   50 1   
    51   49   52 1   
    52   49   57 1   
    53   50   51 2   
    54   50   62 1   
    55   52   53 1   
    56   52   58 1   
    57   52   59 1   
    58   53   54 1   
    59   53   55 2   
    60   54   60 1   
    61   54   61 1   
    62   62   63 1   
    63   62   66 1   
    64   63   64 1   
    65   63   67 1   
    66   63   68 1   
    67   64   65 2   
    68   64   69 1   
    69   69   70 1   
    70   69   76 1   
    71   70   71 1   
    72   70   73 1   
    73   70   77 1   
    74   71   72 2   
    75   71   83 1   
    76   73   74 1   
    77   73   75 1   
    78   73   78 1   
    79   74   80 1   
    80   74   81 1   
    81   74   82 1   
    82   75   79 1   
    83   83   84 1   
    84   83   91 1   
    85   84   85 1   
    86   84   87 1   
    87   84   92 1   
    88   85   86 2   
    89   85  102 1   
    90   87   88 1   
    91   87   89 1   
    92   87   93 1   
    93   88   90 1   
    94   88   94 1   
    95   88   95 1   
    96   89   96 1   
    97   89   97 1   
    98   89   98 1   
    99   90   99 1   
   100   90  100 1   
   101   90  101 1   
   102  102  103 1   
   103  102  110 1   
   104  103  104 1   
   105  103  106 1   
   106  103  111 1   
   107  104  105 2   
   108  104  114 1   
   109  106  107 1   
   110  106  112 1   
   111  106  113 1   
   112  107  108 1   
   113  107  109 1   
   114  114  115 1   
   115  114  125 1   
   116  115  116 1   
   117  115  118 1   
   118  115  126 1   
   119  116  117 2   
   120  116  134 1   
   121  118  119 1   
   122  118  127 1   
   123  118  128 1   
   124  119  120 ar  
   125  119  121 ar  
   126  120  122 ar  
   127  120  129 1   
   128  121  123 ar  
   129  121  130 1   
   130  122  124 ar  
   131  122  131 1   
   132  123  124 ar  
   133  123  132 1   
   134  124  133 1   
   135  134  135 1   
   136  134  140 1   
   137  135  136 1   
   138  135  138 1   
   139  135  141 1   
   140  136  137 2   
   141  136  148 1   
   142  138  139 1   
   143  138  142 1   
   144  138  143 1   
   145  139  140 1   
   146  139  144 1   
   147  139  145 1   
   148  140  146 1   
   149  140  147 1   
   150  148  149 1   
   151  148  157 1   
   152  149  150 1   
   153  149  152 1   
   154  149  158 1   
   155  150  151 2   
   156  150  163 1   
   157  152  153 1   
   158  152  159 1   
   159  152  160 1   
   160  153  154 1   
   161  153  161 1   
   162  153  162 1   
   163  154  155 1   
   164  154  156 1   
   165  163  164 1   
   166  163  168 1   
   167  164  165 1   
   168  164  166 1   
   169  164  167 1   
   170  170  171 1   
   171  170  172 1   
   172  173  174 1   
   173  173  175 1   
@<TRIPOS>SUBSTRUCTURE
     1 MOL         1 TEMP              0 ****  ****    0 ROOT
