@<TRIPOS>MOLECULE
MOL
  179   176     1     0     0
SMALL
resp


@<TRIPOS>ATOM
      1 C1          2.3870   -4.1890    6.0870 c3        1 MOL     -0.508899
      2 C2          2.4570   -4.2990    4.5960 c         1 MOL      0.815242
      3 O1          1.6620   -4.9020    3.9660 o         1 MOL     -0.621760
      4 H1          1.7240   -3.3680    6.3590 hc        1 MOL      0.131690
      5 H2          2.0010   -5.1200    6.5030 hc        1 MOL      0.131690
      6 H3          3.3840   -3.9980    6.4850 hc        1 MOL      0.131690
      7 N1          3.3650   -3.5360    3.9950 n         1 MOL     -0.608243
      8 C3          3.4410   -3.1500    2.5680 c3        1 MOL     -0.098244
      9 C4          4.3060   -4.1070    1.7030 c         1 MOL      0.510780
     10 O2          5.4990   -4.0970    1.8580 o         1 MOL     -0.488809
     11 C5          3.9950   -1.7380    2.5760 c3        1 MOL      0.782452
     12 C6          3.7240   -0.8830    1.2960 c         1 MOL      0.011255
     13 O3          4.0690    0.3450    1.2530 o         1 MOL     -0.601724
     14 O4          3.2670   -1.5120    0.2910 o         1 MOL     -0.601724
     15 H4          4.1330   -3.1510    4.5330 hn        1 MOL      0.291023
     16 H5          2.4190   -3.1530    2.1870 h1        1 MOL      0.049886
     17 H6          5.0280   -1.7780    2.9020 hc        1 MOL     -0.136321
     18 H7          3.5400   -1.1880    3.3950 hc        1 MOL     -0.136321
     19 N2          3.6440   -4.8260    0.7460 n         1 MOL     -0.284357
     20 C7          4.2890   -5.7040   -0.1650 c3        1 MOL     -0.092008
     21 C8          5.1840   -4.9530   -1.1360 c         1 MOL      0.541685
     22 O5          6.1720   -5.5280   -1.5700 o         1 MOL     -0.578260
     23 C9          3.1550   -6.4480   -1.0180 c3        1 MOL     -0.088252
     24 C10         3.6380   -7.6300   -1.8810 c3        1 MOL      0.086066
     25 C11         2.5030   -8.1750   -2.7050 c3        1 MOL     -0.148725
     26 C12         3.0260   -9.0800   -3.7980 c3        1 MOL      0.155808
     27 N3          1.8870   -9.8090   -4.4210 n4        1 MOL     -0.195973
     28 H8          2.6320   -4.7540    0.7230 hn        1 MOL      0.244216
     29 H9          4.9060   -6.4330    0.3480 h1        1 MOL      0.111813
     30 H10         2.6010   -5.6760   -1.5600 hc        1 MOL      0.039500
     31 H11         2.4400   -6.8890   -0.3300 hc        1 MOL      0.039500
     32 H12         4.1610   -8.3870   -1.2930 hc        1 MOL      0.020117
     33 H13         4.3440   -7.2170   -2.5860 hc        1 MOL      0.020117
     34 H14         1.8970   -7.4180   -3.2110 hc        1 MOL      0.054648
     35 H15         2.0090   -8.8160   -1.9780 hc        1 MOL      0.054648
     36 H16         3.6690   -9.8160   -3.3110 hx        1 MOL      0.040444
     37 H17         3.6330   -8.5470   -4.5220 hx        1 MOL      0.040444
     38 H18         1.4570   -9.1940   -5.1000 hn        1 MOL      0.221535
     39 H19         2.1960  -10.5600   -5.0150 hn        1 MOL      0.221535
     40 H20         1.2230  -10.0930   -3.7170 hn        1 MOL      0.221535
     41 N4          4.9710   -3.6560   -1.3250 n         1 MOL     -0.269434
     42 C13         5.8450   -2.8680   -2.3280 c3        1 MOL     -0.039208
     43 C14         6.7460   -1.9300   -1.5480 c         1 MOL      0.500953
     44 O6          7.7590   -1.5530   -2.0430 o         1 MOL     -0.557618
     45 C15         4.8830   -2.0440   -3.3330 c3        1 MOL     -0.262837
     46 C16         3.8420   -1.1560   -2.6180 c         1 MOL      0.631184
     47 O7          2.5880   -1.2880   -2.6920 o         1 MOL     -0.695213
     48 O8          4.2960   -0.1200   -2.0020 o         1 MOL     -0.695213
     49 H21         4.2000   -3.2080   -0.8540 hn        1 MOL      0.195788
     50 H22         6.4450   -3.5290   -2.9370 h1        1 MOL      0.130482
     51 H23         4.3580   -2.6190   -4.0870 hc        1 MOL      0.098849
     52 H24         5.5520   -1.3990   -3.8890 hc        1 MOL      0.098849
     53 N5          6.4140   -1.5580   -0.2850 n         1 MOL      0.133783
     54 C17         7.2130   -0.7900    0.6410 c3        1 MOL     -0.524147
     55 C18         7.2090    0.6820    0.3770 c         1 MOL      0.605337
     56 O9          7.9990    1.3770    1.0600 o         1 MOL     -0.573958
     57 H25         5.5430   -1.9650    0.0440 hn        1 MOL     -0.080783
     58 H26         8.2200   -1.2060    0.6020 h1        1 MOL      0.201690
     59 H27         6.8270   -0.8940    1.6630 h1        1 MOL      0.201690
     60 N6          6.3690    1.2560   -0.4990 n         1 MOL     -0.174694
     61 C19         6.3370    2.6990   -0.8270 c3        1 MOL      0.246356
     62 C20         4.8990    3.2470   -1.1720 c         1 MOL      0.555102
     63 O10         3.9120    2.5970   -1.2540 o         1 MOL     -0.532280
     64 C21         7.3390    2.9970   -1.9730 c3        1 MOL     -0.304276
     65 C22         8.4570    3.8350   -1.3920 c         1 MOL      0.667923
     66 N7          9.7220    3.4800   -1.5740 n         1 MOL     -0.800057
     67 O11         8.2210    4.8650   -0.7900 o         1 MOL     -0.555283
     68 H28         5.6120    0.6890   -0.8520 hn        1 MOL      0.088433
     69 H29         6.5680    3.2750    0.0700 h1        1 MOL      0.011114
     70 H30         6.8660    3.5260   -2.8010 hc        1 MOL      0.068889
     71 H31         7.8900    2.1100   -2.2940 hc        1 MOL      0.068889
     72 H32         9.9440    2.6750   -2.1250 hn        1 MOL      0.375111
     73 H33        10.4940    4.0390   -1.2390 hn        1 MOL      0.375111
     74 N8          4.8250    4.6180   -1.3550 n         1 MOL     -0.430648
     75 C23         3.6020    5.4050   -1.4840 c3        1 MOL      0.103318
     76 C24         2.6710    5.3410   -0.2960 c         1 MOL      0.569834
     77 O12         3.1770    5.4510    0.8330 o         1 MOL     -0.489140
     78 H34         5.7030    5.1190   -1.2620 hn        1 MOL      0.239537
     79 H35         3.1530    4.9600   -2.3760 h1        1 MOL      0.027519
     80 H36         3.6330    6.4470   -1.7930 h1        1 MOL      0.027519
     81 N9          1.3520    5.2190   -0.6050 n         1 MOL     -0.608674
     82 C25         0.3020    4.8800    0.3040 c3        1 MOL      0.110779
     83 C26         0.5080    3.4330    0.9270 c         1 MOL      0.650479
     84 O13         1.4080    2.6920    0.5410 o         1 MOL     -0.509670
     85 C27        -1.0710    5.2190   -0.3380 c3        1 MOL     -0.275514
     86 C28        -1.2930    6.6100   -0.7960 ca        1 MOL      0.220419
     87 C29        -1.7030    6.9830   -2.0580 ca        1 MOL     -0.204671
     88 C30        -1.1500    7.6220    0.1940 ca        1 MOL     -0.204671
     89 C31        -1.8420    8.3510   -2.3940 ca        1 MOL     -0.234802
     90 C32        -1.3000    9.0380   -0.1270 ca        1 MOL     -0.234802
     91 C33        -1.5400    9.4120   -1.4490 ca        1 MOL      0.292151
     92 O14        -1.7270   10.7470   -1.6880 oh        1 MOL     -0.466453
     93 H37         1.1480    5.1730   -1.5930 hn        1 MOL      0.295188
     94 H38         0.2970    5.4960    1.2070 h1        1 MOL      0.077547
     95 H39        -1.7480    5.0170    0.4900 hc        1 MOL      0.081965
     96 H40        -1.2280    4.5160   -1.1600 hc        1 MOL      0.081965
     97 H41        -1.8070    6.2180   -2.8240 ha        1 MOL      0.137847
     98 H42        -0.9860    7.2990    1.2120 ha        1 MOL      0.137847
     99 H43        -2.1960    8.6250   -3.3750 ha        1 MOL      0.160688
    100 H44        -1.2220    9.7020    0.7110 ha        1 MOL      0.160688
    101 H45        -1.3990   11.2730   -0.9510 ho        1 MOL      0.370819
    102 N10        -0.1810    3.0230    1.9820 n         1 MOL     -0.764134
    103 C34        -0.1480    1.7510    2.7010 c3        1 MOL      0.069197
    104 C35        -0.2870    0.5020    1.8650 c         1 MOL      0.798503
    105 O15         0.5840    0.0220    1.1860 o         1 MOL     -0.540421
    106 C36         1.1680    1.7580    3.6080 c3        1 MOL      0.218250
    107 C37         1.3470    0.4940    4.4910 c3        1 MOL     -0.043295
    108 C38         1.1650    3.0240    4.4400 c3        1 MOL     -0.395720
    109 C39         0.1150    0.1720    5.3440 c3        1 MOL     -0.098931
    110 H46        -0.8480    3.6990    2.3250 hn        1 MOL      0.369040
    111 H47        -0.9680    1.7070    3.4100 h1        1 MOL      0.064551
    112 H48         1.9760    1.8560    2.8830 hc        1 MOL      0.050133
    113 H49         2.2350    0.6780    5.1040 hc        1 MOL      0.034678
    114 H50         1.5490   -0.3800    3.8720 hc        1 MOL      0.034678
    115 H51         1.8570    2.8700    5.2660 hc        1 MOL      0.101110
    116 H52         1.5460    3.8590    3.8590 hc        1 MOL      0.101110
    117 H53         0.1930    3.2760    4.8610 hc        1 MOL      0.101110
    118 H54        -0.2870    1.0680    5.8200 hc        1 MOL      0.014203
    119 H55        -0.6890   -0.1950    4.7050 hc        1 MOL      0.014203
    120 H56         0.4650   -0.6180    5.9970 hc        1 MOL      0.014203
    121 N11        -1.4840   -0.1180    1.9740 n         1 MOL     -0.769361
    122 C40        -1.9170   -1.3820    1.4450 c3        1 MOL     -0.051001
    123 C41        -3.3630   -1.3970    1.0150 c         1 MOL      0.737779
    124 O16        -3.6620   -2.2330    0.1770 o         1 MOL     -0.586774
    125 C42        -1.6110   -2.4090    2.5220 c3        1 MOL      0.103470
    126 O17        -2.3200   -2.2540    3.7270 oh        1 MOL     -0.595071
    127 H57        -2.1100    0.2570    2.6700 hn        1 MOL      0.377701
    128 H58        -1.3340   -1.6210    0.5490 h1        1 MOL      0.105052
    129 H59        -0.5750   -2.3150    2.8360 h1        1 MOL      0.067172
    130 H60        -1.8610   -3.3850    2.1040 h1        1 MOL      0.067172
    131 H61        -1.9850   -2.9400    4.3080 ho        1 MOL      0.415765
    132 N12        -4.3080   -0.5920    1.5240 n         1 MOL     -0.510164
    133 C43        -5.6580   -0.5240    0.9840 c3        1 MOL      0.194727
    134 C44        -5.6960    0.3240   -0.3200 c         1 MOL      0.481762
    135 O18        -4.9980    1.3230   -0.4930 o         1 MOL     -0.575314
    136 C45        -6.4730    0.1070    2.1590 c3        1 MOL     -0.308587
    137 H62        -3.9580    0.2560    1.9490 hn        1 MOL      0.242811
    138 H63        -5.9560   -1.5530    0.7860 h1        1 MOL      0.090082
    139 H64        -6.3230   -0.4890    3.0600 hc        1 MOL      0.101725
    140 H65        -6.1720    1.1380    2.3480 hc        1 MOL      0.101725
    141 H66        -7.5280    0.0760    1.9010 hc        1 MOL      0.101725
    142 N13        -6.5890    0.1670   -1.2330 n         1 MOL     -0.518033
    143 C46        -7.7810   -0.6480   -1.1730 c3        1 MOL      0.486670
    144 C47        -9.0150    0.0620   -1.7030 c         1 MOL      0.422061
    145 O19        -8.8370    0.9140   -2.5850 o         1 MOL     -0.570424
    146 C48        -7.6080   -1.9870   -1.9200 c3        1 MOL     -0.396861
    147 H67        -6.4070    0.6890   -2.0800 hn        1 MOL      0.313825
    148 H68        -7.9960   -0.8370   -0.1190 h1        1 MOL     -0.075593
    149 H69        -7.3350   -1.7940   -2.9580 hc        1 MOL      0.103196
    150 H70        -6.7670   -2.4270   -1.3800 hc        1 MOL      0.103196
    151 H71        -8.4880   -2.6200   -1.8870 hc        1 MOL      0.103196
    152 N14       -10.2890   -0.2820   -1.5210 n         1 MOL     -0.382006
    153 C49       -10.7300   -1.0990   -0.3990 c3        1 MOL     -0.228533
    154 C50       -10.6560   -0.3980    0.9650 c         1 MOL      0.540145
    155 O20       -10.0760   -0.9680    1.8880 o         1 MOL     -0.535379
    156 C51       -12.1960   -1.6030   -0.6250 c3        1 MOL      0.230517
    157 C52       -12.4180   -2.5380   -1.8120 c3        1 MOL     -0.092846
    158 C53       -13.8550   -3.0470   -1.9480 c         1 MOL      0.682125
    159 O21       -14.6580   -2.3140   -2.4980 o         1 MOL     -0.648644
    160 O22       -14.0900   -4.1930   -1.5620 o         1 MOL     -0.648644
    161 H72       -10.9510    0.3500   -1.9240 hn        1 MOL      0.339620
    162 H73       -10.0770   -1.9710   -0.3370 h1        1 MOL      0.116084
    163 H74       -12.7620   -0.7190   -0.9140 hc        1 MOL     -0.040608
    164 H75       -12.7150   -1.9530    0.2630 hc        1 MOL     -0.040608
    165 H76       -11.8780   -3.4590   -1.5990 hc        1 MOL     -0.015093
    166 H77       -12.0720   -2.0090   -2.6880 hc        1 MOL     -0.015093
    167 N15       -11.0360    0.8710    1.0640 n         1 MOL     -0.379171
    168 C54       -10.6510    1.7760    2.2050 c3        1 MOL     -0.188341
    169 H78       -11.2790    2.6670    2.1910 h1        1 MOL      0.112115
    170 H79       -10.7890    1.2500    3.1500 h1        1 MOL      0.112115
    171 H80        -9.6050    2.0680    2.1020 h1        1 MOL      0.112115
    172 H81       -11.3550    1.2110    0.1750 hn        1 MOL      0.269399
    173 Ca1         2.2070    0.5950   -0.9130 Ca        1 MOL      1.782160
    174 O23         1.4010    2.2680   -2.9640 oh        1 MOL     -0.909006
    175 H82         1.4150    3.1830   -3.2430 ho        1 MOL      0.443298
    176 H83         0.9910    1.7930   -3.6830 ho        1 MOL      0.443298
    177 O24        -0.4100   -0.0240   -1.5390 oh        1 MOL     -0.909006
    178 H84        -0.5820   -0.7250   -2.1770 ho        1 MOL      0.443298
    179 H85        -1.2580    0.3790   -1.3970 ho        1 MOL      0.443298
@<TRIPOS>BOND
     1    1    2 1   
     2    1    4 1   
     3    1    5 1   
     4    1    6 1   
     5    2    3 2   
     6    2    7 1   
     7    7    8 1   
     8    7   15 1   
     9    8    9 1   
    10    8   11 1   
    11    8   16 1   
    12    9   10 2   
    13    9   19 1   
    14   11   12 1   
    15   11   17 1   
    16   11   18 1   
    17   12   13 1   
    18   12   14 1   
    19   19   20 1   
    20   19   28 1   
    21   20   21 1   
    22   20   23 1   
    23   20   29 1   
    24   21   22 2   
    25   21   41 1   
    26   23   24 1   
    27   23   30 1   
    28   23   31 1   
    29   24   25 1   
    30   24   32 1   
    31   24   33 1   
    32   25   26 1   
    33   25   34 1   
    34   25   35 1   
    35   26   27 1   
    36   26   36 1   
    37   26   37 1   
    38   27   38 1   
    39   27   39 1   
    40   27   40 1   
    41   41   42 1   
    42   41   49 1   
    43   42   43 1   
    44   42   45 1   
    45   42   50 1   
    46   43   44 2   
    47   43   53 1   
    48   45   46 1   
    49   45   51 1   
    50   45   52 1   
    51   46   47 1   
    52   46   48 1   
    53   53   54 1   
    54   53   57 1   
    55   54   55 1   
    56   54   58 1   
    57   54   59 1   
    58   55   56 2   
    59   55   60 1   
    60   60   61 1   
    61   60   68 1   
    62   61   62 1   
    63   61   64 1   
    64   61   69 1   
    65   62   63 2   
    66   62   74 1   
    67   64   65 1   
    68   64   70 1   
    69   64   71 1   
    70   65   66 1   
    71   65   67 2   
    72   66   72 1   
    73   66   73 1   
    74   74   75 1   
    75   74   78 1   
    76   75   76 1   
    77   75   79 1   
    78   75   80 1   
    79   76   77 2   
    80   76   81 1   
    81   81   82 1   
    82   81   93 1   
    83   82   83 1   
    84   82   85 1   
    85   82   94 1   
    86   83   84 2   
    87   83  102 1   
    88   85   86 1   
    89   85   95 1   
    90   85   96 1   
    91   86   87 ar  
    92   86   88 ar  
    93   87   89 ar  
    94   87   97 1   
    95   88   90 ar  
    96   88   98 1   
    97   89   91 ar  
    98   89   99 1   
    99   90   91 ar  
   100   90  100 1   
   101   91   92 1   
   102   92  101 1   
   103  102  103 1   
   104  102  110 1   
   105  103  104 1   
   106  103  106 1   
   107  103  111 1   
   108  104  105 2   
   109  104  121 1   
   110  106  107 1   
   111  106  108 1   
   112  106  112 1   
   113  107  109 1   
   114  107  113 1   
   115  107  114 1   
   116  108  115 1   
   117  108  116 1   
   118  108  117 1   
   119  109  118 1   
   120  109  119 1   
   121  109  120 1   
   122  121  122 1   
   123  121  127 1   
   124  122  123 1   
   125  122  125 1   
   126  122  128 1   
   127  123  124 2   
   128  123  132 1   
   129  125  126 1   
   130  125  129 1   
   131  125  130 1   
   132  126  131 1   
   133  132  133 1   
   134  132  137 1   
   135  133  134 1   
   136  133  136 1   
   137  133  138 1   
   138  134  135 2   
   139  134  142 1   
   140  136  139 1   
   141  136  140 1   
   142  136  141 1   
   143  142  143 1   
   144  142  147 1   
   145  143  144 1   
   146  143  146 1   
   147  143  148 1   
   148  144  145 2   
   149  144  152 1   
   150  146  149 1   
   151  146  150 1   
   152  146  151 1   
   153  152  153 1   
   154  152  161 1   
   155  153  154 1   
   156  153  156 1   
   157  153  162 1   
   158  154  155 2   
   159  154  167 1   
   160  156  157 1   
   161  156  163 1   
   162  156  164 1   
   163  157  158 1   
   164  157  165 1   
   165  157  166 1   
   166  158  159 1   
   167  158  160 1   
   168  167  168 1   
   169  167  172 1   
   170  168  169 1   
   171  168  170 1   
   172  168  171 1   
   173  174  175 1   
   174  174  176 1   
   175  177  178 1   
   176  177  179 1   
@<TRIPOS>SUBSTRUCTURE
     1 MOL         1 TEMP              0 ****  ****    0 ROOT
