@<TRIPOS>MOLECULE
MOL
  189   185     1     0     0
SMALL
resp


@<TRIPOS>ATOM
      1 C1         -4.5960    4.0300    3.4620 c3        1 MOL     -0.499672
      2 C2         -5.3800    3.5230    2.2760 c         1 MOL      0.809453
      3 O1         -4.7940    3.0880    1.3400 o         1 MOL     -0.736540
      4 H1         -3.5460    4.1290    3.1870 hc        1 MOL      0.126519
      5 H2         -4.9840    5.0030    3.7650 hc        1 MOL      0.126519
      6 H3         -4.6910    3.3270    4.2880 hc        1 MOL      0.126519
      7 N1         -6.6190    3.2300    2.4620 n         1 MOL     -0.686728
      8 C3         -7.4840    2.3120    1.6710 c3        1 MOL      0.411422
      9 C4         -6.7450    0.9420    1.4310 c         1 MOL      0.353192
     10 O2         -6.0960    0.6700    0.4360 o         1 MOL     -0.363043
     11 C5         -8.0850    2.9830    0.4420 c3        1 MOL     -0.393676
     12 C6         -7.1680    3.8270   -0.4530 c         1 MOL      0.926645
     13 O3         -6.2440    3.3360   -1.0750 o         1 MOL     -0.769723
     14 O4         -7.4030    5.0610   -0.6690 o         1 MOL     -0.769723
     15 H4         -6.9520    3.6540    3.3140 hn        1 MOL      0.310903
     16 H5         -8.3800    2.1570    2.2760 h1        1 MOL      0.005692
     17 H6         -8.6730    3.7980    0.8740 hc        1 MOL      0.059361
     18 H7         -8.6690    2.2840   -0.1460 hc        1 MOL      0.059361
     19 N2         -6.7420    0.1410    2.5270 n         1 MOL     -0.594959
     20 C7         -6.1400   -1.2140    2.6540 c3        1 MOL      0.298282
     21 C8         -6.6510   -2.3580    1.6930 c         1 MOL      0.288350
     22 O5         -6.9960   -3.3860    2.2740 o         1 MOL     -0.541175
     23 C9         -4.5730   -1.1630    2.4640 c3        1 MOL      0.122162
     24 C10        -3.7310   -2.3990    2.7840 c3        1 MOL      0.021874
     25 C11        -3.9710    0.0980    3.1420 c3        1 MOL     -0.233164
     26 C12        -3.8600   -2.9480    4.2330 c3        1 MOL     -0.320719
     27 H8         -7.1700    0.5900    3.3210 hn        1 MOL      0.286093
     28 H9         -6.2990   -1.6170    3.6620 h1        1 MOL      0.012472
     29 H10        -4.3810   -0.9440    1.4160 hc        1 MOL     -0.114562
     30 H11        -2.6980   -2.2270    2.4750 hc        1 MOL      0.051679
     31 H12        -3.9760   -3.1490    2.0350 hc        1 MOL      0.051679
     32 H13        -4.4770    0.2800    4.0830 hc        1 MOL      0.053778
     33 H14        -2.8950    0.1220    3.3000 hc        1 MOL      0.053778
     34 H15        -4.0800    0.9930    2.5250 hc        1 MOL      0.053778
     35 H16        -3.3310   -2.3070    4.9370 hc        1 MOL      0.067393
     36 H17        -4.9270   -3.0320    4.4290 hc        1 MOL      0.067393
     37 H18        -3.4660   -3.9670    4.2750 hc        1 MOL      0.067393
     38 N3         -6.7510   -2.1610    0.3710 n         1 MOL     -0.018753
     39 C13        -7.5840   -2.9970   -0.5120 c3        1 MOL      0.080109
     40 C14        -6.9530   -4.3950   -0.6880 c         1 MOL      0.568014
     41 O6         -7.7780   -5.3270   -0.6500 o         1 MOL     -0.597724
     42 C15        -7.8020   -2.3100   -1.8920 c3        1 MOL     -0.224583
     43 C16        -8.7390   -1.0460   -1.8350 c         1 MOL      0.747300
     44 O7         -8.5280   -0.0500   -2.5350 o         1 MOL     -0.705501
     45 O8         -9.6790   -1.0870   -1.0060 o         1 MOL     -0.705501
     46 H19        -6.5280   -1.2140    0.0990 hn        1 MOL      0.103324
     47 H20        -8.5560   -3.1280   -0.0390 h1        1 MOL      0.038939
     48 H21        -8.1620   -3.0950   -2.5610 hc        1 MOL      0.035827
     49 H22        -6.8340   -1.9580   -2.2430 hc        1 MOL      0.035827
     50 N4         -5.6660   -4.6740   -0.8640 n         1 MOL     -0.586103
     51 C17        -4.5120   -3.7550   -1.0740 c3        1 MOL      0.319173
     52 C18        -3.3760   -4.4550   -1.7960 c         1 MOL      0.472783
     53 O9         -3.2220   -5.6680   -1.6570 o         1 MOL     -0.600906
     54 H23        -5.4650   -5.6580   -1.0250 hn        1 MOL      0.301384
     55 H24        -4.0580   -3.4070   -0.1410 h1        1 MOL     -0.021737
     56 H25        -4.8550   -2.8340   -1.5480 h1        1 MOL     -0.021737
     57 N5         -2.4570   -3.8620   -2.4750 n         1 MOL     -0.311403
     58 C19        -2.3380   -2.4460   -2.9100 c3        1 MOL     -0.021649
     59 C20        -2.4600   -1.3840   -1.7880 c         1 MOL      0.050088
     60 O10        -3.5060   -0.7200   -1.5960 o         1 MOL     -0.439020
     61 C21        -3.3550   -2.2490   -4.0150 c3        1 MOL     -0.489298
     62 C22        -3.3960   -0.7700   -4.5510 c         1 MOL      0.856723
     63 O11        -2.2910   -0.1140   -4.6810 o         1 MOL     -0.706296
     64 O12        -4.4520   -0.2370   -4.8260 o         1 MOL     -0.706296
     65 H26        -1.6340   -4.4020   -2.7190 hn        1 MOL      0.268641
     66 H27        -1.3380   -2.4770   -3.3490 h1        1 MOL      0.137375
     67 H28        -4.3620   -2.4200   -3.6390 hc        1 MOL      0.136100
     68 H29        -3.1090   -2.9720   -4.7930 hc        1 MOL      0.136100
     69 N6         -1.5070   -1.1630   -0.8870 n         1 MOL     -0.004353
     70 C23        -0.1010   -1.5080   -0.9670 c3        1 MOL     -0.035767
     71 C24         0.3560   -2.6850   -0.1470 c         1 MOL      0.500082
     72 O13        -0.3410   -3.1470    0.8020 o         1 MOL     -0.516871
     73 H30        -1.7430   -0.4360   -0.2180 hn        1 MOL      0.166149
     74 H31         0.4320   -0.6910   -0.4850 h1        1 MOL      0.040029
     75 H32         0.1930   -1.6300   -2.0170 h1        1 MOL      0.040029
     76 N7          1.5340   -3.2190   -0.4890 n         1 MOL     -0.444553
     77 C25         2.1100   -4.4220    0.0670 c3        1 MOL     -0.070113
     78 C26         2.6040   -4.2030    1.4970 c         1 MOL      0.462316
     79 O14         2.6580   -5.1770    2.2560 o         1 MOL     -0.502155
     80 C27         3.1150   -5.0030   -0.9380 c3        1 MOL      0.016283
     81 C28         4.4640   -4.3530   -0.9150 c3        1 MOL     -0.202201
     82 C29         5.4000   -4.9330   -1.9780 c         1 MOL      0.621569
     83 N8          6.0230   -6.0410   -1.7190 n         1 MOL     -0.705316
     84 O15         5.5820   -4.3300   -3.0210 o         1 MOL     -0.539333
     85 H33         2.1090   -2.6960   -1.1270 hn        1 MOL      0.281176
     86 H34         1.1570   -4.9590    0.1640 h1        1 MOL      0.143956
     87 H35         2.8070   -5.1530   -1.9770 hc        1 MOL      0.023453
     88 H36         3.2670   -6.0160   -0.5820 hc        1 MOL      0.023453
     89 H37         4.8430   -4.3850    0.0970 hc        1 MOL      0.073556
     90 H38         4.4000   -3.2880   -1.1610 hc        1 MOL      0.073556
     91 H39         5.8460   -6.4840   -0.8370 hn        1 MOL      0.339710
     92 H40         6.5280   -6.5600   -2.4230 hn        1 MOL      0.339710
     93 N9          2.9320   -2.9400    1.8940 n         1 MOL     -0.147777
     94 C30         3.4970   -2.6390    3.2470 c3        1 MOL     -0.395831
     95 C31         4.9310   -2.0680    3.2800 c         1 MOL      0.602132
     96 O16         5.6350   -2.0830    4.3240 o         1 MOL     -0.557898
     97 C32         2.5020   -1.7810    4.0500 c3        1 MOL      0.329291
     98 C33         1.2560   -2.4660    4.4490 c3        1 MOL     -0.226702
     99 C34         2.2780   -0.4510    3.3990 c3        1 MOL     -0.226702
    100 H41         2.8940   -2.1350    1.2890 hn        1 MOL      0.220553
    101 H42         3.6320   -3.5540    3.8310 h1        1 MOL      0.160924
    102 H43         3.0660   -1.5520    4.9510 hc        1 MOL     -0.022264
    103 H44         0.6930   -1.9580    5.2410 hc        1 MOL      0.051638
    104 H45         0.6140   -2.4010    3.5720 hc        1 MOL      0.051638
    105 H46         1.4240   -3.4980    4.7690 hc        1 MOL      0.051638
    106 H47         3.2070    0.1140    3.2940 hc        1 MOL      0.051638
    107 H48         1.7020   -0.3840    2.4790 hc        1 MOL      0.051638
    108 H49         1.6870    0.0760    4.1550 hc        1 MOL      0.051638
    109 N10         5.4010   -1.5480    2.1590 n         1 MOL     -0.270510
    110 C35         6.7600   -1.0800    1.8720 c3        1 MOL     -0.246613
    111 C36         6.7800    0.3020    1.3410 c         1 MOL      0.857794
    112 O17         7.6180    1.0990    1.6970 o         1 MOL     -0.625342
    113 C37         7.4270   -2.0080    0.8870 c3        1 MOL     -0.087935
    114 C38         7.6710   -3.3680    1.2820 c         1 MOL      0.660887
    115 N11         8.3290   -3.6090    2.4230 n         1 MOL     -0.786149
    116 O18         7.2820   -4.2490    0.5640 o         1 MOL     -0.562427
    117 H50         4.7110   -1.6290    1.4210 hn        1 MOL      0.145076
    118 H51         7.2660   -1.1710    2.8370 h1        1 MOL      0.106490
    119 H52         8.4060   -1.5760    0.7220 hc        1 MOL      0.070105
    120 H53         6.7970   -1.9140   -0.0070 hc        1 MOL      0.070105
    121 H54         8.5650   -2.8160    3.0040 hn        1 MOL      0.363283
    122 H55         8.8120   -4.4850    2.5670 hn        1 MOL      0.363283
    123 N12         5.8800    0.6580    0.4910 n         1 MOL     -0.660368
    124 C39         5.9900    1.8870   -0.3090 c3        1 MOL      0.002477
    125 C40         4.7410    2.6550   -0.3740 c         1 MOL      0.815139
    126 O19         3.6640    2.0100   -0.4230 o         1 MOL     -0.612614
    127 C41         6.4700    1.6450   -1.7960 c3        1 MOL     -0.173545
    128 C42         7.7710    0.9560   -1.8960 ca        1 MOL     -0.019526
    129 C43         8.9590    1.6640   -1.8160 ca        1 MOL     -0.021583
    130 C44         7.8780   -0.4600   -2.0290 ca        1 MOL     -0.021583
    131 C45        10.2260    1.0100   -1.9590 ca        1 MOL     -0.370438
    132 C46         9.0790   -1.1900   -1.9880 ca        1 MOL     -0.370438
    133 C47        10.2880   -0.4300   -1.9810 ca        1 MOL      0.382268
    134 O20        11.4250   -1.1480   -2.0490 oh        1 MOL     -0.471521
    135 H56         5.2240   -0.0430    0.1720 hn        1 MOL      0.337468
    136 H57         6.6390    2.6130    0.1770 h1        1 MOL      0.078089
    137 H58         6.4810    2.6210   -2.2800 hc        1 MOL      0.127229
    138 H59         5.8180    0.9910   -2.3680 hc        1 MOL      0.127229
    139 H60         8.9880    2.7370   -1.8090 ha        1 MOL      0.089717
    140 H61         6.9660   -1.0320   -2.0340 ha        1 MOL      0.089717
    141 H62        11.1410    1.5600   -1.9050 ha        1 MOL      0.166090
    142 H63         9.1210   -2.2610   -2.1390 ha        1 MOL      0.166090
    143 H64        12.2110   -0.5970   -2.0640 ho        1 MOL      0.345132
    144 N13         4.7460    3.9880   -0.4970 n         1 MOL     -0.737868
    145 C48         3.7590    5.0230   -0.8030 c3        1 MOL      0.143750
    146 C49         2.5840    5.1400    0.2460 c         1 MOL      0.103816
    147 O21         1.6350    5.9360    0.0720 o         1 MOL     -0.469782
    148 C50         3.2720    5.1090   -2.2770 c3        1 MOL      0.098142
    149 C51         4.4340    5.1810   -3.2760 c3        1 MOL     -0.219831
    150 C52         4.0120    5.0400   -4.7500 c         1 MOL      0.762770
    151 O22         3.5720    3.9640   -5.1680 o         1 MOL     -0.744550
    152 O23         4.2670    5.9880   -5.5000 o         1 MOL     -0.744550
    153 H65         5.6890    4.3560   -0.4620 hn        1 MOL      0.330239
    154 H66         4.4200    5.8880   -0.6780 h1        1 MOL      0.073037
    155 H67         2.7080    5.9850   -2.5980 hc        1 MOL      0.038921
    156 H68         2.6030    4.2820   -2.4580 hc        1 MOL      0.038921
    157 H69         5.0820    4.3170   -3.1010 hc        1 MOL     -0.011468
    158 H70         4.9600    6.1240   -3.0980 hc        1 MOL     -0.011468
    159 N14         2.3540    4.2230    1.1650 n         1 MOL      0.065716
    160 C53         1.2270    4.2230    2.0930 c3        1 MOL     -0.129184
    161 C54         1.6390    4.8360    3.4500 c         1 MOL      0.482798
    162 O24         0.7840    5.3870    4.1440 o         1 MOL     -0.533954
    163 C55         0.7210    2.7500    2.1830 c3        1 MOL      0.159929
    164 C56         0.3200    1.9710    0.9210 c3        1 MOL      0.390838
    165 C57        -1.0730    2.2720    0.3610 c         1 MOL      0.565317
    166 O25        -1.1870    3.4240   -0.1410 o         1 MOL     -0.651805
    167 O26        -2.0420    1.5050    0.4840 o         1 MOL     -0.651805
    168 H71         3.1040    3.5790    1.3420 hn        1 MOL      0.107287
    169 H72         0.3470    4.7210    1.6840 h1        1 MOL      0.142990
    170 H73        -0.0600    2.6790    2.9440 hc        1 MOL     -0.077436
    171 H74         1.5530    2.1810    2.5910 hc        1 MOL     -0.077436
    172 H75         0.3080    0.9220    1.2260 hc        1 MOL     -0.135030
    173 H76         0.9990    2.0040    0.0740 hc        1 MOL     -0.135030
    174 N15         2.9150    4.8380    3.8310 n         1 MOL     -0.249558
    175 C58         3.3740    5.5220    4.9940 c3        1 MOL     -0.353462
    176 H77         4.4350    5.7460    4.8880 h1        1 MOL      0.130652
    177 H78         2.8170    6.4510    5.1140 h1        1 MOL      0.130652
    178 H79         3.2220    4.8910    5.8700 h1        1 MOL      0.130652
    179 H80         3.6160    4.3460    3.2880 hn        1 MOL      0.231944
    180 Ca1        -4.0940    1.7790   -0.9630 Ca        1 MOL      1.731439
    181 O27        -3.4320    4.3420   -1.8250 oh        1 MOL     -0.848824
    182 H81        -3.9480    5.1010   -1.5510 ho        1 MOL      0.411446
    183 H82        -2.6860    4.3230   -1.2230 ho        1 MOL      0.411446
    184 O28        -6.0340    0.9300   -2.8300 oh        1 MOL     -0.848824
    185 H83        -5.7360    0.3930   -3.5700 ho        1 MOL      0.411446
    186 H84        -6.9590    0.7080   -2.7300 ho        1 MOL      0.411446
    187 O29        -2.3130    1.5760   -2.6500 oh        1 MOL     -0.848824
    188 H85        -2.3300    0.9390   -3.3620 ho        1 MOL      0.411446
    189 H86        -1.4530    1.9840   -2.7080 ho        1 MOL      0.411446
@<TRIPOS>BOND
     1    1    2 1   
     2    1    4 1   
     3    1    5 1   
     4    1    6 1   
     5    2    3 2   
     6    2    7 1   
     7    7    8 1   
     8    7   15 1   
     9    8    9 1   
    10    8   11 1   
    11    8   16 1   
    12    9   10 2   
    13    9   19 1   
    14   11   12 1   
    15   11   17 1   
    16   11   18 1   
    17   12   13 1   
    18   12   14 1   
    19   19   20 1   
    20   19   27 1   
    21   20   21 1   
    22   20   23 1   
    23   20   28 1   
    24   21   22 2   
    25   21   38 1   
    26   23   24 1   
    27   23   25 1   
    28   23   29 1   
    29   24   26 1   
    30   24   30 1   
    31   24   31 1   
    32   25   32 1   
    33   25   33 1   
    34   25   34 1   
    35   26   35 1   
    36   26   36 1   
    37   26   37 1   
    38   38   39 1   
    39   38   46 1   
    40   39   40 1   
    41   39   42 1   
    42   39   47 1   
    43   40   41 2   
    44   40   50 1   
    45   42   43 1   
    46   42   48 1   
    47   42   49 1   
    48   43   44 1   
    49   43   45 1   
    50   50   51 1   
    51   50   54 1   
    52   51   52 1   
    53   51   55 1   
    54   51   56 1   
    55   52   53 2   
    56   52   57 1   
    57   57   58 1   
    58   57   65 1   
    59   58   59 1   
    60   58   61 1   
    61   58   66 1   
    62   59   60 2   
    63   59   69 1   
    64   61   62 1   
    65   61   67 1   
    66   61   68 1   
    67   62   63 1   
    68   62   64 1   
    69   69   70 1   
    70   69   73 1   
    71   70   71 1   
    72   70   74 1   
    73   70   75 1   
    74   71   72 2   
    75   71   76 1   
    76   76   77 1   
    77   76   85 1   
    78   77   78 1   
    79   77   80 1   
    80   77   86 1   
    81   78   79 2   
    82   78   93 1   
    83   80   81 1   
    84   80   87 1   
    85   80   88 1   
    86   81   82 1   
    87   81   89 1   
    88   81   90 1   
    89   82   83 1   
    90   82   84 2   
    91   83   91 1   
    92   83   92 1   
    93   93   94 1   
    94   93  100 1   
    95   94   95 1   
    96   94   97 1   
    97   94  101 1   
    98   95   96 2   
    99   95  109 1   
   100   97   98 1   
   101   97   99 1   
   102   97  102 1   
   103   98  103 1   
   104   98  104 1   
   105   98  105 1   
   106   99  106 1   
   107   99  107 1   
   108   99  108 1   
   109  109  110 1   
   110  109  117 1   
   111  110  111 1   
   112  110  113 1   
   113  110  118 1   
   114  111  112 2   
   115  111  123 1   
   116  113  114 1   
   117  113  119 1   
   118  113  120 1   
   119  114  115 1   
   120  114  116 2   
   121  115  121 1   
   122  115  122 1   
   123  123  124 1   
   124  123  135 1   
   125  124  125 1   
   126  124  127 1   
   127  124  136 1   
   128  125  126 2   
   129  125  144 1   
   130  127  128 1   
   131  127  137 1   
   132  127  138 1   
   133  128  129 ar  
   134  128  130 ar  
   135  129  131 ar  
   136  129  139 1   
   137  130  132 ar  
   138  130  140 1   
   139  131  133 ar  
   140  131  141 1   
   141  132  133 ar  
   142  132  142 1   
   143  133  134 1   
   144  134  143 1   
   145  144  145 1   
   146  144  153 1   
   147  145  146 1   
   148  145  148 1   
   149  145  154 1   
   150  146  147 2   
   151  146  159 1   
   152  148  149 1   
   153  148  155 1   
   154  148  156 1   
   155  149  150 1   
   156  149  157 1   
   157  149  158 1   
   158  150  151 1   
   159  150  152 1   
   160  159  160 1   
   161  159  168 1   
   162  160  161 1   
   163  160  163 1   
   164  160  169 1   
   165  161  162 2   
   166  161  174 1   
   167  163  164 1   
   168  163  170 1   
   169  163  171 1   
   170  164  165 1   
   171  164  172 1   
   172  164  173 1   
   173  165  166 1   
   174  165  167 1   
   175  174  175 1   
   176  174  179 1   
   177  175  176 1   
   178  175  177 1   
   179  175  178 1   
   180  181  182 1   
   181  181  183 1   
   182  184  185 1   
   183  184  186 1   
   184  187  188 1   
   185  187  189 1   
@<TRIPOS>SUBSTRUCTURE
     1 MOL         1 TEMP              0 ****  ****    0 ROOT
