@<TRIPOS>MOLECULE
MOL
  178   175     1     0     0
SMALL
resp


@<TRIPOS>ATOM
      1 C1         -4.3410   -0.9440   -3.1170 c3        1 MOL     -0.415402
      2 C2         -5.6630   -0.5250   -2.5080 c         1 MOL      0.760400
      3 O1         -5.6610    0.2010   -1.4560 o         1 MOL     -0.589653
      4 H1         -4.3650   -2.0120   -3.3350 hc        1 MOL      0.106745
      5 H2         -4.1730   -0.3890   -4.0390 hc        1 MOL      0.106745
      6 H3         -3.5350   -0.7350   -2.4140 hc        1 MOL      0.106745
      7 N1         -6.7990   -0.8820   -3.1120 n         1 MOL     -0.714260
      8 C3         -8.1080   -0.2850   -2.7380 c3        1 MOL      0.394761
      9 C4         -8.4740   -0.7480   -1.2520 c         1 MOL      0.447303
     10 O2         -8.7230   -1.9260   -0.9950 o         1 MOL     -0.519852
     11 C5         -9.1350   -0.4820   -3.8170 c3        1 MOL     -0.266878
     12 C6        -10.4550    0.1330   -3.4350 c         1 MOL      0.700115
     13 O3        -11.4500   -0.6500   -3.2660 o         1 MOL     -0.723681
     14 O4        -10.4730    1.3370   -3.2520 o         1 MOL     -0.723681
     15 H4         -6.7220   -1.4690   -3.9350 hn        1 MOL      0.342534
     16 H5         -8.0470    0.7950   -2.5840 h1        1 MOL     -0.051095
     17 H6         -9.2250   -1.5530   -3.9690 hc        1 MOL      0.029850
     18 H7         -8.7510    0.0480   -4.6970 hc        1 MOL      0.029850
     19 N2         -8.7630    0.1960   -0.3680 n         1 MOL     -0.259266
     20 C7         -9.0440   -0.1390    0.9490 c3        1 MOL      0.071931
     21 C8         -7.8680   -0.7880    1.7670 c         1 MOL      0.236711
     22 O5         -8.0350   -1.4660    2.7620 o         1 MOL     -0.510592
     23 C9         -9.4760    1.1110    1.6840 c3        1 MOL     -0.207221
     24 H8         -8.8620    1.1490   -0.6810 hn        1 MOL      0.244142
     25 H9         -9.9480   -0.7490    0.9370 h1        1 MOL      0.103580
     26 H10        -8.7220    1.8970    1.7270 hc        1 MOL      0.055207
     27 H11       -10.3340    1.5150    1.1380 hc        1 MOL      0.055207
     28 H12        -9.8530    1.0080    2.7010 hc        1 MOL      0.055207
     29 N3         -6.6670   -0.6940    1.2120 n         1 MOL     -0.003143
     30 C10        -5.4350   -1.3270    1.5370 c3        1 MOL      0.202734
     31 C11        -4.9380   -1.0680    2.9610 c         1 MOL      0.332866
     32 O6         -4.5560   -1.9800    3.6980 o         1 MOL     -0.468755
     33 C12        -5.5430   -2.7580    1.1410 c3        1 MOL     -0.047122
     34 C13        -4.1800   -3.4080    1.0410 c         1 MOL      0.672225
     35 O7         -4.1260   -4.6420    0.8600 o         1 MOL     -0.738472
     36 O8         -3.1080   -2.7760    1.0360 o         1 MOL     -0.738472
     37 H13        -6.6480   -0.1800    0.3440 hn        1 MOL      0.021900
     38 H14        -4.6330   -0.9940    0.8670 h1        1 MOL     -0.016071
     39 H15        -6.0750   -3.0160    0.2260 hc        1 MOL      0.014817
     40 H16        -6.0380   -3.2750    1.9530 hc        1 MOL      0.014817
     41 N4         -5.0050    0.2020    3.3830 n         1 MOL     -0.172232
     42 C14        -4.7130    0.6320    4.7650 c3        1 MOL     -0.138051
     43 C15        -3.5100    1.6360    4.8780 c         1 MOL      0.563204
     44 O9         -3.2920    2.1400    5.9850 o         1 MOL     -0.582988
     45 H17        -5.3090    0.9010    2.7160 hn        1 MOL      0.160220
     46 H18        -4.5110   -0.2330    5.3830 h1        1 MOL      0.089132
     47 H19        -5.5700    1.1840    5.1560 h1        1 MOL      0.089132
     48 N5         -2.8730    1.9560    3.7690 n         1 MOL     -0.432085
     49 C16        -1.7720    2.8750    3.6430 c3        1 MOL      0.216873
     50 C17        -1.9150    3.8550    2.4110 c         1 MOL      0.382338
     51 O10        -2.8890    3.7700    1.6170 o         1 MOL     -0.483095
     52 C18        -0.5750    1.9760    3.4580 c3        1 MOL     -0.253957
     53 C19         0.7810    2.5520    3.9840 c         1 MOL      0.524913
     54 N6          1.8850    1.8930    3.8770 n         1 MOL     -0.722888
     55 O11         0.9780    3.7660    4.2020 o         1 MOL     -0.535154
     56 H20        -3.0530    1.3240    2.9910 hn        1 MOL      0.245753
     57 H21        -1.7190    3.5060    4.5330 h1        1 MOL      0.046815
     58 H22        -0.5170    1.6750    2.4150 hc        1 MOL      0.131866
     59 H23        -0.7550    1.0110    3.9420 hc        1 MOL      0.131866
     60 H24         1.7980    0.8940    3.8290 hn        1 MOL      0.367671
     61 H25         2.6570    2.4940    4.1390 hn        1 MOL      0.367671
     62 N7         -0.8320    4.6890    2.2500 n         1 MOL     -0.373265
     63 C20        -0.7740    5.7990    1.3170 c3        1 MOL      0.187637
     64 C21         0.6230    5.9400    0.8000 c         1 MOL      0.475961
     65 O12         1.5620    5.4250    1.3640 o         1 MOL     -0.440460
     66 H26        -0.1700    4.5660    2.9990 hn        1 MOL      0.208318
     67 H27        -1.1000    6.7000    1.8370 h1        1 MOL      0.013405
     68 H28        -1.6020    5.5940    0.6420 h1        1 MOL      0.013405
     69 N8          0.8500    6.7970   -0.1820 n         1 MOL     -0.478784
     70 C22         2.1390    7.0230   -0.9210 c3        1 MOL      0.022607
     71 C23         2.7630    5.7930   -1.6020 c         1 MOL      0.279001
     72 O13         3.8720    5.7690   -2.0540 o         1 MOL     -0.519684
     73 C24         2.0860    8.1220   -1.9980 c3        1 MOL      0.299928
     74 C25         1.2620    7.8350   -3.2570 c3        1 MOL     -0.127610
     75 O14         1.5060    9.3380   -1.3620 oh        1 MOL     -0.640034
     76 H29         0.1140    7.4610   -0.3760 hn        1 MOL      0.229195
     77 H30         2.9070    7.2720   -0.1920 h1        1 MOL      0.100469
     78 H31         3.1480    8.3270   -2.1720 h1        1 MOL      0.067030
     79 H32         0.5800    9.1270   -1.2480 ho        1 MOL      0.387811
     80 H33         1.9230    7.5390   -4.0690 hc        1 MOL      0.030695
     81 H34         0.5370    7.0370   -3.0820 hc        1 MOL      0.030695
     82 H35         0.7340    8.7140   -3.6280 hc        1 MOL      0.030695
     83 N9          1.8740    4.8610   -1.8370 n         1 MOL     -0.169073
     84 C26         2.2900    3.5200   -2.1660 c3        1 MOL      0.452893
     85 C27         1.6720    2.4510   -1.1950 c         1 MOL      0.226320
     86 O15         0.5940    2.6570   -0.6410 o         1 MOL     -0.438055
     87 C28         1.9540    3.0250   -3.6010 c3        1 MOL      0.035277
     88 C29         0.4040    3.0770   -4.0900 c3        1 MOL     -0.245866
     89 C30         2.7800    3.9230   -4.6110 c3        1 MOL     -0.346757
     90 C31        -0.4050    4.3710   -3.8280 c3        1 MOL      0.139316
     91 H36         0.9520    5.0430   -1.4820 hn        1 MOL      0.174133
     92 H37         3.3570    3.3300   -2.0550 h1        1 MOL     -0.017541
     93 H38         2.4420    2.0720   -3.7920 hc        1 MOL      0.023607
     94 H39        -0.1460    2.2630   -3.6430 hc        1 MOL      0.084978
     95 H40         0.2970    3.0070   -5.1750 hc        1 MOL      0.084978
     96 H41         2.3220    4.9020   -4.7330 hc        1 MOL      0.082688
     97 H42         3.7950    4.0420   -4.2510 hc        1 MOL      0.082688
     98 H43         2.7550    3.4740   -5.6060 hc        1 MOL      0.082688
     99 H44        -1.4140    4.3310   -4.2520 hc        1 MOL     -0.028442
    100 H45        -0.4900    4.5110   -2.7490 hc        1 MOL     -0.028442
    101 H46         0.0580    5.2180   -4.3390 hc        1 MOL     -0.028442
    102 N10         2.4010    1.3400   -1.0030 n         1 MOL     -0.671359
    103 C32         1.9810    0.2280   -0.1210 c3        1 MOL      0.621897
    104 C33         3.1850   -0.3460    0.6370 c         1 MOL      0.221144
    105 O16         3.3350   -1.5580    0.6660 o         1 MOL     -0.383365
    106 C34         1.2340   -0.7200   -1.0730 c3        1 MOL     -0.112983
    107 C35         0.5480   -1.9120   -0.5400 c         1 MOL      0.630023
    108 O17         0.3860   -2.0670    0.6770 o         1 MOL     -0.746683
    109 O18         0.0120   -2.7710   -1.3090 o         1 MOL     -0.746683
    110 H47         3.3340    1.3480   -1.3840 hn        1 MOL      0.304762
    111 H48         1.3050    0.4760    0.7000 h1        1 MOL     -0.065083
    112 H49         1.8710   -1.0930   -1.8760 hc        1 MOL      0.031580
    113 H50         0.4890   -0.1120   -1.5900 hc        1 MOL      0.031580
    114 N11         4.0970    0.5090    1.0610 n         1 MOL     -0.235991
    115 C36         5.4440    0.1010    1.3760 c3        1 MOL      0.045170
    116 C37         6.0000   -0.8910    0.2990 c         1 MOL      0.300865
    117 O19         5.9560   -0.5870   -0.8900 o         1 MOL     -0.512896
    118 C38         6.3470    1.3300    1.3780 c3        1 MOL     -0.191125
    119 C39         7.7910    1.0340    1.6910 ca        1 MOL      0.031730
    120 C40         8.1390    0.6280    2.9800 ca        1 MOL     -0.100511
    121 C41         8.7360    0.9380    0.6650 ca        1 MOL     -0.100511
    122 C42         9.4550    0.1880    3.2950 ca        1 MOL     -0.179339
    123 C43        10.0070    0.3520    0.9420 ca        1 MOL     -0.179339
    124 C44        10.3560    0.0090    2.2420 ca        1 MOL     -0.049412
    125 H51         3.8710    1.4910    0.9630 hn        1 MOL      0.218790
    126 H52         5.3190   -0.2640    2.3900 h1        1 MOL      0.036387
    127 H53         5.9090    1.9880    2.1420 hc        1 MOL      0.090724
    128 H54         6.2360    1.8560    0.4320 hc        1 MOL      0.090724
    129 H55         7.4240    0.5800    3.7850 ha        1 MOL      0.117260
    130 H56         8.4880    1.3350   -0.3070 ha        1 MOL      0.117260
    131 H57         9.7040   -0.1320    4.2980 ha        1 MOL      0.126504
    132 H58        10.6540    0.1870    0.0860 ha        1 MOL      0.126504
    133 H59        11.2710   -0.4810    2.5550 ha        1 MOL      0.089226
    134 N12         6.6770   -1.9430    0.7870 n         1 MOL      0.148105
    135 C45         7.4890   -2.8320   -0.0880 c3        1 MOL     -0.006537
    136 C46         6.7190   -3.4650   -1.2550 c         1 MOL      0.280049
    137 O20         7.3700   -3.8460   -2.2340 o         1 MOL     -0.521796
    138 C47         8.0630   -3.9020    0.8240 c3        1 MOL     -0.140416
    139 C48         7.1350   -3.9610    1.9930 c3        1 MOL      0.070664
    140 C49         6.6430   -2.5390    2.1510 c3        1 MOL     -0.167084
    141 H60         8.2460   -2.1440   -0.4540 h1        1 MOL      0.075542
    142 H61         8.2090   -4.8750    0.3600 hc        1 MOL      0.059282
    143 H62         9.0280   -3.5980    1.2460 hc        1 MOL      0.059282
    144 H63         6.3800   -4.7090    1.7870 hc        1 MOL      0.013865
    145 H64         7.6040   -4.2440    2.9340 hc        1 MOL      0.013865
    146 H65         5.5870   -2.6460    2.4120 h1        1 MOL      0.048746
    147 H66         7.2610   -2.0660    2.9060 h1        1 MOL      0.048746
    148 N13         5.3990   -3.6170   -1.2540 n         1 MOL     -0.037811
    149 C50         4.5910   -4.3510   -2.2950 c3        1 MOL     -0.188872
    150 C51         4.5170   -3.6240   -3.6940 c         1 MOL      0.495226
    151 O21         4.6210   -4.3970   -4.6880 o         1 MOL     -0.546530
    152 C52         3.1860   -4.4500   -1.8520 c3        1 MOL      0.101845
    153 C53         2.9320   -5.4310   -0.7090 c3        1 MOL     -0.061117
    154 C54         1.5050   -5.4990   -0.2060 c         1 MOL      0.602771
    155 O22         0.6380   -5.9290   -0.9710 o         1 MOL     -0.699213
    156 O23         1.2440   -5.2490    0.9740 o         1 MOL     -0.699213
    157 H67         4.9230   -3.2100   -0.4670 hn        1 MOL      0.146768
    158 H68         5.0310   -5.3330   -2.5100 h1        1 MOL      0.123883
    159 H69         2.5370   -4.7340   -2.6870 hc        1 MOL     -0.000894
    160 H70         2.8680   -3.4460   -1.5460 hc        1 MOL     -0.000894
    161 H71         3.6630   -5.2690    0.0830 hc        1 MOL     -0.002620
    162 H72         3.2000   -6.4430   -1.0270 hc        1 MOL     -0.002620
    163 N14         4.5030   -2.3040   -3.8040 n         1 MOL     -0.188695
    164 C55         4.3000   -1.5950   -5.0960 c3        1 MOL     -0.335020
    165 H73         4.5330   -0.5380   -4.9700 h1        1 MOL      0.126891
    166 H74         4.9560   -2.0230   -5.8530 h1        1 MOL      0.126891
    167 H75         3.2620   -1.7020   -5.4110 h1        1 MOL      0.126891
    168 H76         4.6210   -1.7040   -3.0020 hn        1 MOL      0.221163
    169 Ca1        -1.1700   -4.3150    0.3350 Ca        1 MOL      1.727989
    170 O24        -2.7130   -4.8230   -1.7760 oh        1 MOL     -0.823548
    171 H77        -2.4570   -4.7730   -2.6980 ho        1 MOL      0.403486
    172 H78        -3.6400   -4.6210   -1.7650 ho        1 MOL      0.403486
    173 O25        -1.1780   -4.6550    2.9070 oh        1 MOL     -0.823548
    174 H79        -0.6110   -5.2250    3.4220 ho        1 MOL      0.403486
    175 H80        -1.9040   -4.4430    3.5040 ho        1 MOL      0.403486
    176 O26        -1.9920   -6.7860    0.4070 oh        1 MOL     -0.823548
    177 H81        -2.6920   -7.0850    0.9960 ho        1 MOL      0.403486
    178 H82        -1.7890   -7.5660   -0.1230 ho        1 MOL      0.403486
@<TRIPOS>BOND
     1    1    2 1   
     2    1    4 1   
     3    1    5 1   
     4    1    6 1   
     5    2    3 2   
     6    2    7 1   
     7    7    8 1   
     8    7   15 1   
     9    8    9 1   
    10    8   11 1   
    11    8   16 1   
    12    9   10 2   
    13    9   19 1   
    14   11   12 1   
    15   11   17 1   
    16   11   18 1   
    17   12   13 1   
    18   12   14 1   
    19   19   20 1   
    20   19   24 1   
    21   20   21 1   
    22   20   23 1   
    23   20   25 1   
    24   21   22 2   
    25   21   29 1   
    26   23   26 1   
    27   23   27 1   
    28   23   28 1   
    29   29   30 1   
    30   29   37 1   
    31   30   31 1   
    32   30   33 1   
    33   30   38 1   
    34   31   32 2   
    35   31   41 1   
    36   33   34 1   
    37   33   39 1   
    38   33   40 1   
    39   34   35 1   
    40   34   36 1   
    41   41   42 1   
    42   41   45 1   
    43   42   43 1   
    44   42   46 1   
    45   42   47 1   
    46   43   44 2   
    47   43   48 1   
    48   48   49 1   
    49   48   56 1   
    50   49   50 1   
    51   49   52 1   
    52   49   57 1   
    53   50   51 2   
    54   50   62 1   
    55   52   53 1   
    56   52   58 1   
    57   52   59 1   
    58   53   54 1   
    59   53   55 2   
    60   54   60 1   
    61   54   61 1   
    62   62   63 1   
    63   62   66 1   
    64   63   64 1   
    65   63   67 1   
    66   63   68 1   
    67   64   65 2   
    68   64   69 1   
    69   69   70 1   
    70   69   76 1   
    71   70   71 1   
    72   70   73 1   
    73   70   77 1   
    74   71   72 2   
    75   71   83 1   
    76   73   74 1   
    77   73   75 1   
    78   73   78 1   
    79   74   80 1   
    80   74   81 1   
    81   74   82 1   
    82   75   79 1   
    83   83   84 1   
    84   83   91 1   
    85   84   85 1   
    86   84   87 1   
    87   84   92 1   
    88   85   86 2   
    89   85  102 1   
    90   87   88 1   
    91   87   89 1   
    92   87   93 1   
    93   88   90 1   
    94   88   94 1   
    95   88   95 1   
    96   89   96 1   
    97   89   97 1   
    98   89   98 1   
    99   90   99 1   
   100   90  100 1   
   101   90  101 1   
   102  102  103 1   
   103  102  110 1   
   104  103  104 1   
   105  103  106 1   
   106  103  111 1   
   107  104  105 2   
   108  104  114 1   
   109  106  107 1   
   110  106  112 1   
   111  106  113 1   
   112  107  108 1   
   113  107  109 1   
   114  114  115 1   
   115  114  125 1   
   116  115  116 1   
   117  115  118 1   
   118  115  126 1   
   119  116  117 2   
   120  116  134 1   
   121  118  119 1   
   122  118  127 1   
   123  118  128 1   
   124  119  120 ar  
   125  119  121 ar  
   126  120  122 ar  
   127  120  129 1   
   128  121  123 ar  
   129  121  130 1   
   130  122  124 ar  
   131  122  131 1   
   132  123  124 ar  
   133  123  132 1   
   134  124  133 1   
   135  134  135 1   
   136  134  140 1   
   137  135  136 1   
   138  135  138 1   
   139  135  141 1   
   140  136  137 2   
   141  136  148 1   
   142  138  139 1   
   143  138  142 1   
   144  138  143 1   
   145  139  140 1   
   146  139  144 1   
   147  139  145 1   
   148  140  146 1   
   149  140  147 1   
   150  148  149 1   
   151  148  157 1   
   152  149  150 1   
   153  149  152 1   
   154  149  158 1   
   155  150  151 2   
   156  150  163 1   
   157  152  153 1   
   158  152  159 1   
   159  152  160 1   
   160  153  154 1   
   161  153  161 1   
   162  153  162 1   
   163  154  155 1   
   164  154  156 1   
   165  163  164 1   
   166  163  168 1   
   167  164  165 1   
   168  164  166 1   
   169  164  167 1   
   170  170  171 1   
   171  170  172 1   
   172  173  174 1   
   173  173  175 1   
   174  176  177 1   
   175  176  178 1   
@<TRIPOS>SUBSTRUCTURE
     1 MOL         1 TEMP              0 ****  ****    0 ROOT
