@<TRIPOS>MOLECULE
MOL
  179   176     1     0     0
SMALL
resp


@<TRIPOS>ATOM
      1 C1          0.2050   -3.3020    6.0690 c3        1 MOL     -0.515422
      2 C2          0.3880   -3.3090    4.5720 c         1 MOL      0.813317
      3 O1         -0.5320   -3.3630    3.7790 o         1 MOL     -0.607610
      4 H1         -0.1160   -2.3110    6.3910 hc        1 MOL      0.145713
      5 H2         -0.5520   -4.0360    6.3460 hc        1 MOL      0.145713
      6 H3          1.1490   -3.5530    6.5530 hc        1 MOL      0.145713
      7 N1          1.6910   -3.1800    4.1200 n         1 MOL     -0.675571
      8 C3          1.9950   -3.0860    2.6940 c3        1 MOL      0.008431
      9 C4          2.1540   -4.4040    1.9600 c         1 MOL      0.670694
     10 O2          2.6030   -5.3810    2.5480 o         1 MOL     -0.564697
     11 C5          3.2380   -2.1430    2.6050 c3        1 MOL     -0.157304
     12 C6          3.3630   -1.3910    1.3300 c         1 MOL      0.605263
     13 O3          3.8830   -0.3030    1.4090 o         1 MOL     -0.677576
     14 O4          3.1050   -1.9590    0.2430 o         1 MOL     -0.677576
     15 H4          2.3740   -3.0750    4.8510 hn        1 MOL      0.342191
     16 H5          1.1450   -2.5550    2.2530 h1        1 MOL      0.065358
     17 H6          4.1780   -2.7010    2.6180 hc        1 MOL      0.100524
     18 H7          3.2490   -1.4420    3.4290 hc        1 MOL      0.100524
     19 N2          1.8920   -4.3780    0.6520 n         1 MOL     -0.475589
     20 C7          2.0110   -5.4790   -0.2410 c3        1 MOL      0.007365
     21 C8          3.1950   -5.4060   -1.1640 c         1 MOL      0.513142
     22 O5          3.6400   -6.4650   -1.6050 o         1 MOL     -0.580247
     23 C9          0.7070   -5.4510   -1.0740 c3        1 MOL      0.103215
     24 C10         0.5660   -6.6180   -1.9920 c3        1 MOL     -0.025205
     25 C11        -0.6640   -6.7780   -2.8190 c3        1 MOL      0.012337
     26 C12        -1.8260   -7.0990   -1.8910 c3        1 MOL     -0.107331
     27 N3         -2.9980   -7.6290   -2.6230 n4        1 MOL     -0.125884
     28 H8          1.6390   -3.4860    0.2510 hn        1 MOL      0.304087
     29 H9          2.0530   -6.4140    0.3110 h1        1 MOL      0.104269
     30 H10         0.5470   -4.5080   -1.5960 hc        1 MOL     -0.021152
     31 H11         0.0040   -5.4050   -0.2470 hc        1 MOL     -0.021152
     32 H12         0.6940   -7.5420   -1.4270 hc        1 MOL      0.011407
     33 H13         1.3840   -6.3840   -2.6670 hc        1 MOL      0.011407
     34 H14        -0.5620   -7.6050   -3.5090 hc        1 MOL      0.035329
     35 H15        -0.6880   -5.9310   -3.5050 hc        1 MOL      0.035329
     36 H16        -2.0870   -6.2890   -1.2140 hx        1 MOL      0.111727
     37 H17        -1.5150   -8.0070   -1.3770 hx        1 MOL      0.111727
     38 H18        -2.7350   -8.2850   -3.3510 hn        1 MOL      0.217772
     39 H19        -3.7240   -7.9980   -2.0290 hn        1 MOL      0.217772
     40 H20        -3.3760   -6.8730   -3.1640 hn        1 MOL      0.217772
     41 N4          3.7810   -4.2130   -1.3380 n         1 MOL     -0.251124
     42 C13         4.9220   -4.0120   -2.1930 c3        1 MOL      0.074867
     43 C14         6.1610   -3.4170   -1.4500 c         1 MOL      0.412919
     44 O6          7.2480   -3.5040   -1.9990 o         1 MOL     -0.504526
     45 C15         4.6330   -3.0750   -3.2630 c3        1 MOL     -0.218728
     46 C16         4.1080   -1.7010   -2.8430 c         1 MOL      0.724814
     47 O7          4.8490   -0.8100   -2.3380 o         1 MOL     -0.754536
     48 O8          2.9000   -1.4380   -2.7510 o         1 MOL     -0.754536
     49 H21         3.2400   -3.3920   -1.1050 hn        1 MOL      0.173987
     50 H22         5.3290   -4.9200   -2.6440 h1        1 MOL      0.093374
     51 H23         3.8420   -3.5150   -3.8670 hc        1 MOL      0.069732
     52 H24         5.4770   -2.8420   -3.9220 hc        1 MOL      0.069732
     53 N5          5.8410   -2.8700   -0.2560 n         1 MOL     -0.081552
     54 C17         6.7790   -2.7330    0.7870 c3        1 MOL     -0.177694
     55 C18         7.2290   -1.2810    0.9760 c         1 MOL      0.611441
     56 O9          7.6380   -0.9760    2.1090 o         1 MOL     -0.581119
     57 H25         4.8650   -2.7540   -0.0290 hn        1 MOL      0.042483
     58 H26         7.7000   -3.2630    0.5730 h1        1 MOL      0.100111
     59 H27         6.3680   -3.1740    1.6900 h1        1 MOL      0.100111
     60 N6          7.0860   -0.3440    0.0070 n         1 MOL     -0.337049
     61 C19         7.5040    1.0680    0.1360 c3        1 MOL      0.011129
     62 C20         6.3660    2.0790   -0.0490 c         1 MOL      0.778019
     63 O10         5.2900    1.7290   -0.5670 o         1 MOL     -0.633515
     64 C21         8.5040    1.2780   -0.9770 c3        1 MOL     -0.416533
     65 C22         9.6350    0.2880   -0.9490 c         1 MOL      0.735251
     66 N7         10.6440    0.4650   -0.1080 n         1 MOL     -0.799934
     67 O11         9.8290   -0.5490   -1.7960 o         1 MOL     -0.541022
     68 H28         6.7450   -0.6170   -0.9130 hn        1 MOL      0.256670
     69 H29         8.0370    1.2350    1.0770 h1        1 MOL      0.044616
     70 H30         8.9320    2.2840   -0.9650 hc        1 MOL      0.112339
     71 H31         7.8850    1.1490   -1.8630 hc        1 MOL      0.112339
     72 H32        10.6360    1.1880    0.5930 hn        1 MOL      0.363656
     73 H33        11.4630   -0.0960   -0.2910 hn        1 MOL      0.363656
     74 N8          6.5750    3.3020    0.4510 n         1 MOL     -0.561662
     75 C23         5.9100    4.5210    0.1240 c3        1 MOL      0.052210
     76 C24         4.5460    4.6330    0.8260 c         1 MOL      0.467894
     77 O12         4.3610    4.4680    2.0070 o         1 MOL     -0.497014
     78 H34         7.4270    3.3370    0.9980 hn        1 MOL      0.340486
     79 H35         5.6730    4.6530   -0.9310 h1        1 MOL      0.057594
     80 H36         6.5690    5.3710    0.3310 h1        1 MOL      0.057594
     81 N9          3.4620    4.8490    0.0930 n         1 MOL     -0.378999
     82 C25         2.0730    4.7890    0.6110 c3        1 MOL     -0.036626
     83 C26         1.6900    3.3290    0.8630 c         1 MOL      0.749075
     84 O13         2.3380    2.4230    0.4050 o         1 MOL     -0.463285
     85 C27         1.0860    5.4230   -0.4210 c3        1 MOL     -0.125444
     86 C28         1.5720    6.8390   -0.7390 ca        1 MOL      0.009990
     87 C29         1.3620    7.8610    0.1970 ca        1 MOL     -0.092743
     88 C30         2.2100    7.0610   -1.9990 ca        1 MOL     -0.092743
     89 C31         1.8210    9.1740   -0.1660 ca        1 MOL     -0.304096
     90 C32         2.7960    8.3130   -2.2490 ca        1 MOL     -0.304096
     91 C33         2.6000    9.3590   -1.3260 ca        1 MOL      0.367653
     92 O14         3.1640   10.5280   -1.6620 oh        1 MOL     -0.466264
     93 H37         3.5800    5.0760   -0.8870 hn        1 MOL      0.212793
     94 H38         1.9500    5.4330    1.4870 h1        1 MOL      0.102997
     95 H39         0.0390    5.4680   -0.1130 hc        1 MOL      0.052652
     96 H40         1.1220    4.8730   -1.3600 hc        1 MOL      0.052652
     97 H41         0.7160    7.6680    1.0500 ha        1 MOL      0.112926
     98 H42         2.2610    6.1740   -2.6080 ha        1 MOL      0.112926
     99 H43         1.6510    9.9550    0.5560 ha        1 MOL      0.169209
    100 H44         3.2290    8.5000   -3.2190 ha        1 MOL      0.169209
    101 H45         3.0920   11.1540   -0.9450 ho        1 MOL      0.368461
    102 N10         0.5390    3.1480    1.5470 n         1 MOL     -0.755313
    103 C34        -0.0290    1.8290    2.0740 c3        1 MOL     -0.009748
    104 C35        -0.2390    0.6820    1.0390 c         1 MOL      0.517542
    105 O15         0.6930    0.1000    0.4380 o         1 MOL     -0.534034
    106 C36         0.7170    1.3650    3.3470 c3        1 MOL      0.073138
    107 C37         0.2140    0.0190    3.9340 c3        1 MOL     -0.212205
    108 C38         0.5040    2.4280    4.5080 c3        1 MOL     -0.189756
    109 C39        -1.1520    0.1370    4.4510 c3        1 MOL     -0.397678
    110 H46         0.0080    3.9660    1.8150 hn        1 MOL      0.374736
    111 H47        -1.0290    2.1210    2.3870 h1        1 MOL      0.121008
    112 H48         1.7900    1.3170    3.2030 hc        1 MOL      0.085130
    113 H49         0.8530   -0.2420    4.7790 hc        1 MOL      0.118652
    114 H50         0.1690   -0.8020    3.2160 hc        1 MOL      0.118652
    115 H51        -0.4880    2.8750    4.5090 hc        1 MOL      0.059093
    116 H52         0.6560    1.9400    5.4720 hc        1 MOL      0.059093
    117 H53         1.1960    3.2560    4.3840 hc        1 MOL      0.059093
    118 H54        -1.9210    0.7450    3.9700 hc        1 MOL      0.110215
    119 H55        -1.5980   -0.8390    4.5800 hc        1 MOL      0.110215
    120 H56        -1.0490    0.4620    5.4870 hc        1 MOL      0.110215
    121 N11        -1.4730    0.3230    0.8390 n         1 MOL     -0.312805
    122 C40        -1.8090   -0.7940    0.0050 c3        1 MOL     -0.188508
    123 C41        -3.2100   -0.8750   -0.5360 c         1 MOL      0.710847
    124 O16        -3.4210   -1.5490   -1.5240 o         1 MOL     -0.563039
    125 C42        -1.4860   -2.0930    0.7380 c3        1 MOL      0.461998
    126 O17        -2.2240   -2.2250    1.9240 oh        1 MOL     -0.656647
    127 H57        -2.1660    0.8500    1.3610 hn        1 MOL      0.210830
    128 H58        -1.1650   -0.7050   -0.8770 h1        1 MOL      0.080402
    129 H59        -0.4270   -2.1740    0.9940 h1        1 MOL     -0.079639
    130 H60        -1.7470   -2.8760    0.0220 h1        1 MOL     -0.079639
    131 H61        -1.6160   -2.5740    2.5760 ho        1 MOL      0.423681
    132 N12        -4.1370   -0.0960   -0.0220 n         1 MOL     -0.610932
    133 C43        -5.5750    0.0450   -0.4200 c3        1 MOL      0.096525
    134 C44        -5.8920    0.6560   -1.7700 c         1 MOL      0.652010
    135 O18        -4.9750    1.1450   -2.4700 o         1 MOL     -0.559248
    136 C45        -6.1750    0.9670    0.7110 c3        1 MOL     -0.377848
    137 H62        -3.8440    0.4810    0.7590 hn        1 MOL      0.344976
    138 H63        -6.1260   -0.8880   -0.3050 h1        1 MOL      0.144481
    139 H64        -7.2620    0.9610    0.6000 hc        1 MOL      0.114231
    140 H65        -5.9460    0.5520    1.6880 hc        1 MOL      0.114231
    141 H66        -5.9850    2.0320    0.5870 hc        1 MOL      0.114231
    142 N13        -7.1260    0.6240   -2.2880 n         1 MOL     -0.657533
    143 C46        -8.3380   -0.1080   -1.9030 c3        1 MOL      0.508113
    144 C47        -9.6300    0.4640   -2.5700 c         1 MOL      0.186263
    145 O19        -9.6280    0.9550   -3.7610 o         1 MOL     -0.492247
    146 C48        -8.1550   -1.5400   -2.3330 c3        1 MOL     -0.306556
    147 H67        -7.2930    1.1240   -3.1540 hn        1 MOL      0.318406
    148 H68        -8.3970   -0.1270   -0.8200 h1        1 MOL     -0.089215
    149 H69        -7.3150   -1.9770   -1.7990 hc        1 MOL      0.081870
    150 H70        -9.1140   -1.9920   -2.1140 hc        1 MOL      0.081870
    151 H71        -7.9550   -1.4710   -3.4090 hc        1 MOL      0.081870
    152 N14       -10.7690    0.5810   -1.8930 n         1 MOL     -0.178699
    153 C49       -10.9740    0.3350   -0.4290 c3        1 MOL     -0.213151
    154 C50       -10.3050    1.4140    0.4760 c         1 MOL      0.499165
    155 O20        -9.7410    0.9850    1.4760 o         1 MOL     -0.518582
    156 C51       -12.4570    0.3450   -0.1540 c3        1 MOL      0.211893
    157 C52       -13.0540   -0.2340    1.1520 c3        1 MOL     -0.202592
    158 C53       -14.5690   -0.3000    1.0250 c         1 MOL      0.712155
    159 O21       -15.0610   -1.0850    0.2020 o         1 MOL     -0.651928
    160 O22       -15.3280    0.1990    1.8790 o         1 MOL     -0.651928
    161 H72       -11.5270    1.1020   -2.3130 hn        1 MOL      0.244440
    162 H73       -10.5970   -0.6710   -0.2820 h1        1 MOL      0.137740
    163 H74       -12.9460   -0.2390   -0.9240 hc        1 MOL     -0.056254
    164 H75       -12.8320    1.3780   -0.1710 hc        1 MOL     -0.056254
    165 H76       -12.7780    0.5300    1.8740 hc        1 MOL      0.034808
    166 H77       -12.6510   -1.1980    1.4850 hc        1 MOL      0.034808
    167 N15       -10.4010    2.7160    0.1240 n         1 MOL     -0.225928
    168 C54        -9.6330    3.8360    0.7080 c3        1 MOL     -0.335766
    169 H78        -9.9900    4.0330    1.7190 h1        1 MOL      0.137624
    170 H79        -8.5750    3.5730    0.7420 h1        1 MOL      0.137624
    171 H80        -9.7670    4.7270    0.0960 h1        1 MOL      0.137624
    172 H81       -10.9740    2.8840   -0.6900 hn        1 MOL      0.245860
    173 Ca1         3.0260    0.4820   -1.1050 Ca        1 MOL      1.716922
    174 O23         0.6820    0.5460   -2.3330 oh        1 MOL     -0.846848
    175 H82        -0.1640    0.9550   -2.1810 ho        1 MOL      0.426145
    176 H83         0.4680   -0.2710   -2.7980 ho        1 MOL      0.426145
    177 O24         3.0430    2.7830   -2.5260 oh        1 MOL     -0.846848
    178 H84         2.3640    3.0030   -3.1700 ho        1 MOL      0.426145
    179 H85         3.7160    3.4470   -2.6660 ho        1 MOL      0.426145
@<TRIPOS>BOND
     1    1    2 1   
     2    1    4 1   
     3    1    5 1   
     4    1    6 1   
     5    2    3 2   
     6    2    7 1   
     7    7    8 1   
     8    7   15 1   
     9    8    9 1   
    10    8   11 1   
    11    8   16 1   
    12    9   10 2   
    13    9   19 1   
    14   11   12 1   
    15   11   17 1   
    16   11   18 1   
    17   12   13 1   
    18   12   14 1   
    19   19   20 1   
    20   19   28 1   
    21   20   21 1   
    22   20   23 1   
    23   20   29 1   
    24   21   22 2   
    25   21   41 1   
    26   23   24 1   
    27   23   30 1   
    28   23   31 1   
    29   24   25 1   
    30   24   32 1   
    31   24   33 1   
    32   25   26 1   
    33   25   34 1   
    34   25   35 1   
    35   26   27 1   
    36   26   36 1   
    37   26   37 1   
    38   27   38 1   
    39   27   39 1   
    40   27   40 1   
    41   41   42 1   
    42   41   49 1   
    43   42   43 1   
    44   42   45 1   
    45   42   50 1   
    46   43   44 2   
    47   43   53 1   
    48   45   46 1   
    49   45   51 1   
    50   45   52 1   
    51   46   47 1   
    52   46   48 1   
    53   53   54 1   
    54   53   57 1   
    55   54   55 1   
    56   54   58 1   
    57   54   59 1   
    58   55   56 2   
    59   55   60 1   
    60   60   61 1   
    61   60   68 1   
    62   61   62 1   
    63   61   64 1   
    64   61   69 1   
    65   62   63 2   
    66   62   74 1   
    67   64   65 1   
    68   64   70 1   
    69   64   71 1   
    70   65   66 1   
    71   65   67 2   
    72   66   72 1   
    73   66   73 1   
    74   74   75 1   
    75   74   78 1   
    76   75   76 1   
    77   75   79 1   
    78   75   80 1   
    79   76   77 2   
    80   76   81 1   
    81   81   82 1   
    82   81   93 1   
    83   82   83 1   
    84   82   85 1   
    85   82   94 1   
    86   83   84 2   
    87   83  102 1   
    88   85   86 1   
    89   85   95 1   
    90   85   96 1   
    91   86   87 ar  
    92   86   88 ar  
    93   87   89 ar  
    94   87   97 1   
    95   88   90 ar  
    96   88   98 1   
    97   89   91 ar  
    98   89   99 1   
    99   90   91 ar  
   100   90  100 1   
   101   91   92 1   
   102   92  101 1   
   103  102  103 1   
   104  102  110 1   
   105  103  104 1   
   106  103  106 1   
   107  103  111 1   
   108  104  105 2   
   109  104  121 1   
   110  106  107 1   
   111  106  108 1   
   112  106  112 1   
   113  107  109 1   
   114  107  113 1   
   115  107  114 1   
   116  108  115 1   
   117  108  116 1   
   118  108  117 1   
   119  109  118 1   
   120  109  119 1   
   121  109  120 1   
   122  121  122 1   
   123  121  127 1   
   124  122  123 1   
   125  122  125 1   
   126  122  128 1   
   127  123  124 2   
   128  123  132 1   
   129  125  126 1   
   130  125  129 1   
   131  125  130 1   
   132  126  131 1   
   133  132  133 1   
   134  132  137 1   
   135  133  134 1   
   136  133  136 1   
   137  133  138 1   
   138  134  135 2   
   139  134  142 1   
   140  136  139 1   
   141  136  140 1   
   142  136  141 1   
   143  142  143 1   
   144  142  147 1   
   145  143  144 1   
   146  143  146 1   
   147  143  148 1   
   148  144  145 2   
   149  144  152 1   
   150  146  149 1   
   151  146  150 1   
   152  146  151 1   
   153  152  153 1   
   154  152  161 1   
   155  153  154 1   
   156  153  156 1   
   157  153  162 1   
   158  154  155 2   
   159  154  167 1   
   160  156  157 1   
   161  156  163 1   
   162  156  164 1   
   163  157  158 1   
   164  157  165 1   
   165  157  166 1   
   166  158  159 1   
   167  158  160 1   
   168  167  168 1   
   169  167  172 1   
   170  168  169 1   
   171  168  170 1   
   172  168  171 1   
   173  174  175 1   
   174  174  176 1   
   175  177  178 1   
   176  177  179 1   
@<TRIPOS>SUBSTRUCTURE
     1 MOL         1 TEMP              0 ****  ****    0 ROOT
