@<TRIPOS>MOLECULE
MOL
  178   175     1     0     0
SMALL
resp


@<TRIPOS>ATOM
      1 C1         -6.5360    7.7580    1.8180 c3        1 MOL     -0.339450
      2 C2         -7.5600    7.0020    0.9700 c         1 MOL      0.611987
      3 O1         -8.1540    7.5980    0.0440 o         1 MOL     -0.559407
      4 H1         -6.7770    7.6340    2.8740 hc        1 MOL      0.078164
      5 H2         -5.5390    7.3630    1.6240 hc        1 MOL      0.078164
      6 H3         -6.5640    8.8180    1.5630 hc        1 MOL      0.078164
      7 N1         -7.8410    5.7820    1.4390 n         1 MOL     -0.446013
      8 C3         -8.8720    4.9920    0.7680 c3        1 MOL      0.171056
      9 C4         -8.3580    3.9280   -0.2450 c         1 MOL      0.393570
     10 O2         -9.0560    3.4690   -1.1490 o         1 MOL     -0.481616
     11 C5         -9.7260    4.2700    1.8280 c3        1 MOL     -0.209805
     12 C6        -10.9030    3.4840    1.1990 c         1 MOL      0.685469
     13 O3        -10.7880    2.2440    1.3330 o         1 MOL     -0.712285
     14 O4        -11.8680    4.0330    0.6250 o         1 MOL     -0.712285
     15 H4         -7.5470    5.6180    2.3870 hn        1 MOL      0.288749
     16 H5         -9.5640    5.6780    0.2770 h1        1 MOL      0.058972
     17 H6        -10.0470    5.0080    2.5580 hc        1 MOL      0.006640
     18 H7         -9.0760    3.6290    2.4220 hc        1 MOL      0.006640
     19 N2         -7.0760    3.6150   -0.0910 n         1 MOL     -0.362786
     20 C7         -6.3090    2.6010   -0.8920 c3        1 MOL      0.239590
     21 C8         -5.2260    2.0090   -0.0150 c         1 MOL      0.386052
     22 O5         -4.6260    2.7420    0.8180 o         1 MOL     -0.551164
     23 C9         -5.8000    3.2220   -2.2080 c3        1 MOL     -0.267856
     24 H8         -6.5580    4.0680    0.6520 hn        1 MOL      0.187090
     25 H9         -6.9860    1.7790   -1.1430 h1        1 MOL      0.052874
     26 H10        -5.4200    2.4090   -2.8240 hc        1 MOL      0.077508
     27 H11        -6.6310    3.7220   -2.7000 hc        1 MOL      0.077508
     28 H12        -5.0540    3.9920   -2.0000 hc        1 MOL      0.077508
     29 N3         -4.7830    0.7950   -0.0870 n         1 MOL     -0.201540
     30 C10        -5.3940   -0.3120   -0.8140 c3        1 MOL     -0.090483
     31 C11        -5.3740   -1.6460   -0.0820 c         1 MOL      0.463886
     32 O6         -4.5190   -1.8500    0.8040 o         1 MOL     -0.518630
     33 C12        -4.8820   -0.5290   -2.2770 c3        1 MOL      0.001885
     34 C13        -3.3340   -0.3560   -2.5670 c         1 MOL      0.592623
     35 O7         -2.8000    0.6650   -3.0710 o         1 MOL     -0.673121
     36 O8         -2.6060   -1.2790   -2.0840 o         1 MOL     -0.673121
     37 H13        -4.0100    0.5960    0.5400 hn        1 MOL      0.231613
     38 H14        -6.4400   -0.1100   -1.0090 h1        1 MOL      0.060105
     39 H15        -5.4300    0.1610   -2.9100 hc        1 MOL     -0.002044
     40 H16        -5.1270   -1.5210   -2.6530 hc        1 MOL     -0.002044
     41 N4         -6.3330   -2.5000   -0.4340 n         1 MOL     -0.384041
     42 C14        -6.5600   -3.7860    0.2030 c3        1 MOL      0.180818
     43 C15        -6.4530   -4.9950   -0.7590 c         1 MOL      0.448264
     44 O9         -7.4770   -5.5060   -1.2880 o         1 MOL     -0.541459
     45 H17        -6.9660   -2.1250   -1.1350 hn        1 MOL      0.304196
     46 H18        -7.5510   -3.8760    0.6500 h1        1 MOL      0.013431
     47 H19        -5.8100   -3.9640    0.9840 h1        1 MOL      0.013431
     48 N5         -5.2710   -5.4420   -1.2010 n         1 MOL     -0.469655
     49 C16        -3.9340   -4.8180   -0.9440 c3        1 MOL      0.130236
     50 C17        -3.4430   -5.3500    0.4350 c         1 MOL      0.543746
     51 O10        -3.4490   -6.5350    0.6850 o         1 MOL     -0.564946
     52 C18        -2.9360   -5.1340   -2.1060 c3        1 MOL     -0.548410
     53 C19        -1.6000   -4.4890   -1.9320 c         1 MOL      0.827000
     54 N6         -0.8250   -4.6790   -2.9340 n         1 MOL     -0.749697
     55 O11        -1.2120   -3.7950   -1.0360 o         1 MOL     -0.887541
     56 H20        -5.1990   -6.3430   -1.6570 hn        1 MOL      0.319257
     57 H21        -3.9720   -3.7350   -0.9480 h1        1 MOL      0.123387
     58 H22        -3.3850   -4.6790   -2.9890 hc        1 MOL      0.169539
     59 H23        -2.8250   -6.2120   -2.0740 hc        1 MOL      0.169539
     60 H24        -0.8800   -5.4740   -3.5540 hn        1 MOL      0.356594
     61 H25         0.0590   -4.1960   -2.9340 hn        1 MOL      0.356594
     62 N7         -3.0480   -4.4360    1.3580 n         1 MOL     -0.195786
     63 C20        -2.5800   -4.6800    2.7100 c3        1 MOL     -0.326079
     64 C21        -1.1260   -4.8510    2.7850 c         1 MOL      0.660112
     65 O12        -0.5870   -4.6750    3.8800 o         1 MOL     -0.598380
     66 H26        -3.1010   -3.4540    1.1570 hn        1 MOL      0.218703
     67 H27        -3.0720   -5.5920    3.0360 h1        1 MOL      0.126398
     68 H28        -2.9030   -3.9330    3.4350 h1        1 MOL      0.126398
     69 N8         -0.4860   -5.0070    1.6780 n         1 MOL     -0.433486
     70 C22         1.0270   -5.1400    1.7610 c3        1 MOL     -0.243358
     71 C23         1.7120   -3.7440    1.5780 c         1 MOL      0.634049
     72 O13         1.3270   -2.8350    0.8200 o         1 MOL     -0.499743
     73 C24         1.3550   -6.1740    0.6480 c3        1 MOL      0.479887
     74 C25         0.9910   -7.5620    1.1700 c3        1 MOL     -0.284185
     75 O14         0.8870   -5.8500   -0.5760 oh        1 MOL     -0.628722
     76 H29        -0.9210   -4.9170    0.7760 hn        1 MOL      0.423172
     77 H30         1.2970   -5.4310    2.7780 h1        1 MOL      0.104995
     78 H31         2.4410   -6.1760    0.5250 h1        1 MOL     -0.048323
     79 H32         1.2320   -5.0090   -0.9060 ho        1 MOL      0.450615
     80 H33        -0.0610   -7.6700    1.4320 hc        1 MOL      0.068173
     81 H34         1.1200   -8.2830    0.3600 hc        1 MOL      0.068173
     82 H35         1.7530   -7.8760    1.8830 hc        1 MOL      0.068173
     83 N9          2.8860   -3.6040    2.2950 n         1 MOL     -0.572888
     84 C26         3.7020   -2.3820    2.2600 c3        1 MOL      0.212296
     85 C27         4.4560   -2.3670    0.9420 c         1 MOL      0.277753
     86 O15         5.5170   -3.0200    0.9820 o         1 MOL     -0.568126
     87 C28         4.5700   -2.0960    3.4750 c3        1 MOL      0.216240
     88 C29         5.4700   -0.8960    3.3650 c3        1 MOL     -0.074027
     89 C30         3.6840   -2.0270    4.7490 c3        1 MOL     -0.385055
     90 C31         4.7370    0.4640    3.2820 c3        1 MOL     -0.296194
     91 H36         3.2510   -4.4290    2.7530 hn        1 MOL      0.322167
     92 H37         3.0470   -1.5150    2.2810 h1        1 MOL      0.091222
     93 H38         5.1800   -2.9840    3.6600 hc        1 MOL     -0.029299
     94 H39         6.0670   -1.0900    2.4740 hc        1 MOL      0.025860
     95 H40         6.1330   -1.0020    4.2260 hc        1 MOL      0.025860
     96 H41         4.2650   -1.6930    5.6110 hc        1 MOL      0.091947
     97 H42         2.8400   -1.3450    4.6870 hc        1 MOL      0.091947
     98 H43         3.2800   -3.0270    4.9110 hc        1 MOL      0.091947
     99 H44         4.0910    0.6020    2.4120 hc        1 MOL      0.082642
    100 H45         4.1760    0.6310    4.1990 hc        1 MOL      0.082642
    101 H46         5.5280    1.2060    3.3390 hc        1 MOL      0.082642
    102 N10         3.9630   -1.9360   -0.2540 n         1 MOL      0.254319
    103 C32         4.6010   -2.0860   -1.5430 c3        1 MOL     -0.008782
    104 C33         5.6230   -0.9790   -1.7920 c         1 MOL      0.448677
    105 O16         6.4760   -1.1460   -2.7190 o         1 MOL     -0.549288
    106 C34         3.5540   -2.0430   -2.7030 c3        1 MOL     -0.189526
    107 C35         2.3560   -3.0320   -2.6820 c         1 MOL      0.618752
    108 O17         2.5930   -4.2560   -2.9700 o         1 MOL     -0.662086
    109 O18         1.2400   -2.7100   -2.1900 o         1 MOL     -0.662086
    110 H47         3.0130   -1.5920   -0.2250 hn        1 MOL     -0.241702
    111 H48         5.1800   -3.0000   -1.4700 h1        1 MOL      0.084453
    112 H49         4.1200   -2.1440   -3.6280 hc        1 MOL      0.057186
    113 H50         3.2050   -1.0090   -2.8090 hc        1 MOL      0.057186
    114 N11         5.6060    0.0520   -0.9490 n         1 MOL     -0.411107
    115 C36         6.6780    1.0640   -1.0000 c3        1 MOL      0.360072
    116 C37         6.1240    2.4450   -0.9190 c         1 MOL      0.047208
    117 O19         5.9090    2.8500    0.2620 o         1 MOL     -0.332890
    118 C38         7.7030    0.5810    0.0490 c3        1 MOL     -0.263755
    119 C39         8.8640    1.3810    0.4570 ca        1 MOL      0.252957
    120 C40         8.7960    2.2390    1.5310 ca        1 MOL     -0.240823
    121 C41        10.1440    1.2660   -0.2370 ca        1 MOL     -0.240823
    122 C42         9.9000    2.9660    1.9300 ca        1 MOL     -0.071530
    123 C43        11.2560    1.9910    0.1390 ca        1 MOL     -0.071530
    124 C44        11.1630    2.8380    1.2580 ca        1 MOL     -0.185940
    125 H51         4.8010    0.1580   -0.3420 hn        1 MOL      0.290161
    126 H52         7.2040    1.0480   -1.9510 h1        1 MOL     -0.012561
    127 H53         8.0720   -0.3520   -0.3960 hc        1 MOL      0.085194
    128 H54         7.2230    0.3670    1.0000 hc        1 MOL      0.085194
    129 H55         7.8420    2.5450    1.9400 ha        1 MOL      0.133609
    130 H56        10.2500    0.5120   -1.0000 ha        1 MOL      0.133609
    131 H57         9.8990    3.7540    2.6660 ha        1 MOL      0.099398
    132 H58        12.2180    1.8700   -0.3380 ha        1 MOL      0.099398
    133 H59        11.9500    3.5090    1.5840 ha        1 MOL      0.113529
    134 N12         5.8970    3.2400   -2.0310 n         1 MOL      0.059863
    135 C45         5.6250    4.7050   -2.0710 c3        1 MOL      0.018077
    136 C46         4.4730    5.1780   -1.2690 c         1 MOL      0.544433
    137 O20         4.3970    6.3120   -0.8770 o         1 MOL     -0.539932
    138 C47         5.5090    5.0710   -3.5370 c3        1 MOL     -0.305730
    139 C48         5.0240    3.7220   -4.2040 c3        1 MOL      0.190777
    140 C49         5.7850    2.6500   -3.3570 c3        1 MOL     -0.339908
    141 H60         6.5320    5.1390   -1.6400 h1        1 MOL      0.064226
    142 H61         4.7380    5.8340   -3.6200 hc        1 MOL      0.108824
    143 H62         6.4530    5.3540   -4.0080 hc        1 MOL      0.108824
    144 H63         3.9880    3.5920   -3.9060 hc        1 MOL     -0.014482
    145 H64         5.1020    3.6750   -5.2930 hc        1 MOL     -0.014482
    146 H65         5.2170    1.7270   -3.4330 h1        1 MOL      0.139149
    147 H66         6.7510    2.5660   -3.8700 h1        1 MOL      0.139149
    148 N13         3.6000    4.2050   -0.8780 n         1 MOL     -0.316751
    149 C50         2.5030    4.4350    0.0740 c3        1 MOL     -0.222416
    150 C51         2.8440    5.0260    1.4640 c         1 MOL      0.485637
    151 O21         2.0240    5.7330    2.0490 o         1 MOL     -0.542175
    152 C52         1.5790    3.2420    0.3340 c3        1 MOL     -0.045864
    153 C53         2.3220    2.0810    0.9660 c3        1 MOL     -0.062417
    154 C54         1.4880    0.7350    0.6900 c         1 MOL      0.555713
    155 O22         0.3920    0.5480    1.2170 o         1 MOL     -0.640878
    156 O23         1.8960    0.0120   -0.2460 o         1 MOL     -0.640878
    157 H67         3.8110    3.3030   -1.2720 hn        1 MOL      0.277876
    158 H68         1.8630    5.2280   -0.3340 h1        1 MOL      0.143380
    159 H69         1.1100    3.0170   -0.6270 hc        1 MOL      0.060836
    160 H70         0.6930    3.5530    0.8880 hc        1 MOL      0.060836
    161 H71         2.5700    2.2920    2.0120 hc        1 MOL      0.014151
    162 H72         3.2480    2.0250    0.3910 hc        1 MOL      0.014151
    163 N14         4.1040    4.8840    1.8790 n         1 MOL     -0.072500
    164 C55         4.5550    5.2550    3.2120 c3        1 MOL     -0.098914
    165 H73         3.7230    5.6820    3.7720 h1        1 MOL      0.058279
    166 H74         4.9250    4.3690    3.7300 h1        1 MOL      0.058279
    167 H75         5.3550    5.9910    3.1340 h1        1 MOL      0.058279
    168 H76         4.6130    4.3120    1.2210 hn        1 MOL      0.063845
    169 Ca1        -0.3960   -1.2810   -0.7010 Ca        1 MOL      1.775707
    170 O24         0.2400    0.1640   -2.9350 oh        1 MOL     -0.832633
    171 H77         0.6840   -0.3020   -3.6560 ho        1 MOL      0.404275
    172 H78        -0.4340    0.6860   -3.3700 ho        1 MOL      0.404275
    173 O25        -1.7520    0.9070   -0.3370 oh        1 MOL     -0.832633
    174 H79        -2.3540    1.4610   -0.8330 ho        1 MOL      0.404275
    175 H80        -1.0460    1.4990   -0.0620 ho        1 MOL      0.404275
    176 O26        -2.0390   -1.5000    1.6030 oh        1 MOL     -0.832633
    177 H81        -2.0400   -0.8710    2.3310 ho        1 MOL      0.404275
    178 H82        -2.9570   -1.5420    1.3280 ho        1 MOL      0.404275
@<TRIPOS>BOND
     1    1    2 1   
     2    1    4 1   
     3    1    5 1   
     4    1    6 1   
     5    2    3 2   
     6    2    7 1   
     7    7    8 1   
     8    7   15 1   
     9    8    9 1   
    10    8   11 1   
    11    8   16 1   
    12    9   10 2   
    13    9   19 1   
    14   11   12 1   
    15   11   17 1   
    16   11   18 1   
    17   12   13 1   
    18   12   14 1   
    19   19   20 1   
    20   19   24 1   
    21   20   21 1   
    22   20   23 1   
    23   20   25 1   
    24   21   22 2   
    25   21   29 1   
    26   23   26 1   
    27   23   27 1   
    28   23   28 1   
    29   29   30 1   
    30   29   37 1   
    31   30   31 1   
    32   30   33 1   
    33   30   38 1   
    34   31   32 2   
    35   31   41 1   
    36   33   34 1   
    37   33   39 1   
    38   33   40 1   
    39   34   35 1   
    40   34   36 1   
    41   41   42 1   
    42   41   45 1   
    43   42   43 1   
    44   42   46 1   
    45   42   47 1   
    46   43   44 2   
    47   43   48 1   
    48   48   49 1   
    49   48   56 1   
    50   49   50 1   
    51   49   52 1   
    52   49   57 1   
    53   50   51 2   
    54   50   62 1   
    55   52   53 1   
    56   52   58 1   
    57   52   59 1   
    58   53   54 1   
    59   53   55 2   
    60   54   60 1   
    61   54   61 1   
    62   62   63 1   
    63   62   66 1   
    64   63   64 1   
    65   63   67 1   
    66   63   68 1   
    67   64   65 2   
    68   64   69 1   
    69   69   70 1   
    70   69   76 1   
    71   70   71 1   
    72   70   73 1   
    73   70   77 1   
    74   71   72 2   
    75   71   83 1   
    76   73   74 1   
    77   73   75 1   
    78   73   78 1   
    79   74   80 1   
    80   74   81 1   
    81   74   82 1   
    82   75   79 1   
    83   83   84 1   
    84   83   91 1   
    85   84   85 1   
    86   84   87 1   
    87   84   92 1   
    88   85   86 2   
    89   85  102 1   
    90   87   88 1   
    91   87   89 1   
    92   87   93 1   
    93   88   90 1   
    94   88   94 1   
    95   88   95 1   
    96   89   96 1   
    97   89   97 1   
    98   89   98 1   
    99   90   99 1   
   100   90  100 1   
   101   90  101 1   
   102  102  103 1   
   103  102  110 1   
   104  103  104 1   
   105  103  106 1   
   106  103  111 1   
   107  104  105 2   
   108  104  114 1   
   109  106  107 1   
   110  106  112 1   
   111  106  113 1   
   112  107  108 1   
   113  107  109 1   
   114  114  115 1   
   115  114  125 1   
   116  115  116 1   
   117  115  118 1   
   118  115  126 1   
   119  116  117 2   
   120  116  134 1   
   121  118  119 1   
   122  118  127 1   
   123  118  128 1   
   124  119  120 ar  
   125  119  121 ar  
   126  120  122 ar  
   127  120  129 1   
   128  121  123 ar  
   129  121  130 1   
   130  122  124 ar  
   131  122  131 1   
   132  123  124 ar  
   133  123  132 1   
   134  124  133 1   
   135  134  135 1   
   136  134  140 1   
   137  135  136 1   
   138  135  138 1   
   139  135  141 1   
   140  136  137 2   
   141  136  148 1   
   142  138  139 1   
   143  138  142 1   
   144  138  143 1   
   145  139  140 1   
   146  139  144 1   
   147  139  145 1   
   148  140  146 1   
   149  140  147 1   
   150  148  149 1   
   151  148  157 1   
   152  149  150 1   
   153  149  152 1   
   154  149  158 1   
   155  150  151 2   
   156  150  163 1   
   157  152  153 1   
   158  152  159 1   
   159  152  160 1   
   160  153  154 1   
   161  153  161 1   
   162  153  162 1   
   163  154  155 1   
   164  154  156 1   
   165  163  164 1   
   166  163  168 1   
   167  164  165 1   
   168  164  166 1   
   169  164  167 1   
   170  170  171 1   
   171  170  172 1   
   172  173  174 1   
   173  173  175 1   
   174  176  177 1   
   175  176  178 1   
@<TRIPOS>SUBSTRUCTURE
     1 MOL         1 TEMP              0 ****  ****    0 ROOT
