@<TRIPOS>MOLECULE
MOL
  178   175     1     0     0
SMALL
resp


@<TRIPOS>ATOM
      1 C1          2.4160   -1.0870    5.3620 c3        1 MOL     -0.376013
      2 C2          3.4460   -0.5170    4.4300 c         1 MOL      0.702838
      3 O1          3.2980    0.5380    3.7930 o         1 MOL     -0.580866
      4 H1          1.5370   -1.3880    4.7920 hc        1 MOL      0.090725
      5 H2          2.8290   -1.9560    5.8750 hc        1 MOL      0.090725
      6 H3          2.1320   -0.3330    6.0960 hc        1 MOL      0.090725
      7 N1          4.5390   -1.3140    4.3050 n         1 MOL     -0.615351
      8 C3          5.6830   -1.0850    3.3440 c3        1 MOL      0.296280
      9 C4          5.7620   -1.9680    2.0780 c         1 MOL      0.483610
     10 O2          6.6940   -1.7670    1.2570 o         1 MOL     -0.400994
     11 C5          6.9690   -1.1580    4.1480 c3        1 MOL     -0.361803
     12 C6          8.2630   -0.5270    3.4960 c         1 MOL      0.698143
     13 O3          9.2030   -1.3780    3.3570 o         1 MOL     -0.690987
     14 O4          8.3110    0.6680    3.1730 o         1 MOL     -0.690987
     15 H4          4.5050   -2.1880    4.8130 hn        1 MOL      0.290854
     16 H5          5.6320   -0.0940    2.8810 h1        1 MOL      0.063072
     17 H6          7.2500   -2.1790    4.4120 hc        1 MOL      0.049384
     18 H7          6.7720   -0.4540    4.9480 hc        1 MOL      0.049384
     19 N2          4.7310   -2.7830    1.8990 n         1 MOL     -0.463060
     20 C7          4.5020   -3.8220    0.8920 c3        1 MOL      0.216360
     21 C8          4.3460   -3.1610   -0.4790 c         1 MOL      0.399514
     22 O5          3.2450   -3.1790   -0.9000 o         1 MOL     -0.522439
     23 C9          5.4890   -4.9210    1.0950 c3        1 MOL     -0.462456
     24 H8          4.0620   -2.7300    2.6490 hn        1 MOL      0.245930
     25 H9          3.5310   -4.2150    1.2070 h1        1 MOL      0.106501
     26 H10         6.4630   -4.4750    0.9050 hc        1 MOL      0.119863
     27 H11         5.4050   -5.1790    2.1540 hc        1 MOL      0.119863
     28 H12         5.2210   -5.7200    0.4090 hc        1 MOL      0.119863
     29 N3          5.4010   -2.6950   -1.0520 n         1 MOL     -0.280028
     30 C10         5.2620   -1.8910   -2.3710 c3        1 MOL     -0.029316
     31 C11         5.6030   -0.4260   -2.2020 c         1 MOL      0.533905
     32 O6          5.8320    0.3300   -3.1640 o         1 MOL     -0.553204
     33 C12         6.1690   -2.6310   -3.4170 c3        1 MOL     -0.142044
     34 C13         7.5420   -2.9890   -2.8070 c         1 MOL      0.725669
     35 O7          8.2670   -2.0730   -2.3650 o         1 MOL     -0.711792
     36 O8          7.8640   -4.1960   -2.7970 o         1 MOL     -0.711792
     37 H13         6.2740   -2.6320   -0.5530 hn        1 MOL      0.268617
     38 H14         4.2290   -1.9370   -2.7130 h1        1 MOL      0.089277
     39 H15         6.2870   -2.0750   -4.3510 hc        1 MOL     -0.014982
     40 H16         5.6840   -3.5510   -3.7370 hc        1 MOL     -0.014982
     41 N4          5.5050    0.0630   -0.8860 n         1 MOL     -0.027954
     42 C14         5.7110    1.4190   -0.6240 c3        1 MOL     -0.203951
     43 C15         4.7860    2.3430   -1.3890 c         1 MOL      0.513637
     44 O9          5.1880    3.3990   -1.8210 o         1 MOL     -0.587736
     45 H17         5.5710   -0.6200   -0.1410 hn        1 MOL      0.019829
     46 H18         6.7770    1.5210   -0.7970 h1        1 MOL      0.111128
     47 H19         5.5260    1.5740    0.4390 h1        1 MOL      0.111128
     48 N5          3.5770    1.9710   -1.5490 n         1 MOL     -0.108917
     49 C16         2.5400    2.6660   -2.3530 c3        1 MOL     -0.341242
     50 C17         2.0840    4.0060   -1.6880 c         1 MOL      0.605773
     51 O10         1.7550    4.0680   -0.4990 o         1 MOL     -0.499320
     52 C18         1.3810    1.6740   -2.5390 c3        1 MOL     -0.179049
     53 C19         1.8470    0.3300   -3.0650 c         1 MOL      0.654874
     54 N6          1.6350    0.0490   -4.3700 n         1 MOL     -0.799004
     55 O11         2.2140   -0.5380   -2.3300 o         1 MOL     -0.605513
     56 H20         3.3060    1.1600   -1.0100 hn        1 MOL      0.179449
     57 H21         2.9280    2.7750   -3.3640 h1        1 MOL      0.135798
     58 H22         0.6020    2.1070   -3.1660 hc        1 MOL      0.103480
     59 H23         0.9360    1.4010   -1.5820 hc        1 MOL      0.103480
     60 H24         1.2280    0.7090   -5.0110 hn        1 MOL      0.351852
     61 H25         2.1370   -0.7660   -4.6890 hn        1 MOL      0.351852
     62 N7          2.2070    5.0680   -2.4530 n         1 MOL     -0.258211
     63 C20         1.7830    6.4530   -2.1110 c3        1 MOL     -0.263940
     64 C21         0.2890    6.6200   -1.8090 c         1 MOL      0.537551
     65 O12        -0.5440    6.3430   -2.6500 o         1 MOL     -0.512654
     66 H26         2.6820    4.9280   -3.3330 hn        1 MOL      0.256737
     67 H27         1.9660    7.0860   -2.9850 h1        1 MOL      0.121829
     68 H28         2.3410    6.8280   -1.2540 h1        1 MOL      0.121829
     69 N8         -0.0040    7.4180   -0.7900 n         1 MOL     -0.333881
     70 C22        -1.3480    7.9920   -0.4340 c3        1 MOL     -0.200019
     71 C23        -2.3650    7.0810    0.2310 c         1 MOL      0.423993
     72 O13        -3.5100    7.4050    0.3460 o         1 MOL     -0.548490
     73 C24        -1.1490    9.2380    0.4280 c3        1 MOL      0.473255
     74 C25        -0.6240    8.9600    1.8930 c3        1 MOL     -0.320866
     75 O14        -0.4050   10.0940   -0.3730 oh        1 MOL     -0.623572
     76 H29         0.7840    7.7750   -0.2660 hn        1 MOL      0.234949
     77 H30        -1.7630    8.2760   -1.4000 h1        1 MOL      0.160073
     78 H31        -2.1390    9.6730    0.5810 h1        1 MOL      0.013518
     79 H32         0.4920    9.8160   -0.1630 ho        1 MOL      0.366657
     80 H33        -0.0070    8.0650    1.8690 hc        1 MOL      0.072662
     81 H34        -0.1020    9.8290    2.3120 hc        1 MOL      0.072662
     82 H35        -1.5120    8.6150    2.4280 hc        1 MOL      0.072662
     83 N9         -1.8940    5.8650    0.5680 n         1 MOL      0.015397
     84 C26        -2.5350    4.6390    1.1230 c3        1 MOL     -0.046879
     85 C27        -2.1320    3.4320    0.3030 c         1 MOL      0.336813
     86 O15        -1.3630    3.5650   -0.6230 o         1 MOL     -0.426431
     87 C28        -2.1160    4.4600    2.5870 c3        1 MOL      0.072420
     88 C29        -0.6680    4.1800    2.8360 c3        1 MOL     -0.127200
     89 C30        -2.6010    5.6300    3.4750 c3        1 MOL     -0.291131
     90 C31        -0.2790    3.3610    4.0250 c3        1 MOL      0.014203
     91 H36        -0.9380    5.7510    0.2590 hn        1 MOL      0.037267
     92 H37        -3.6250    4.6600    1.0780 h1        1 MOL      0.060193
     93 H38        -2.5610    3.5410    2.9720 hc        1 MOL      0.027587
     94 H39        -0.1410    5.1370    2.8050 hc        1 MOL      0.068024
     95 H40        -0.2030    3.6260    2.0190 hc        1 MOL      0.068024
     96 H41        -2.6810    5.2530    4.4970 hc        1 MOL      0.068865
     97 H42        -1.8800    6.4400    3.3610 hc        1 MOL      0.068865
     98 H43        -3.5630    6.0130    3.1170 hc        1 MOL      0.068865
     99 H44         0.7210    3.5670    4.4160 hc        1 MOL      0.007262
    100 H45        -0.9770    3.6560    4.8050 hc        1 MOL      0.007262
    101 H46        -0.5800    2.3140    3.9370 hc        1 MOL      0.007262
    102 N10        -2.5910    2.2380    0.6960 n         1 MOL     -0.247751
    103 C32        -2.2130    0.9400    0.0660 c3        1 MOL     -0.102144
    104 C33        -3.3870   -0.1360    0.0740 c         1 MOL      0.606300
    105 O16        -3.1540   -1.3060    0.3150 o         1 MOL     -0.469650
    106 C34        -0.9200    0.3770    0.6530 c3        1 MOL     -0.341572
    107 C35        -0.3150   -0.5910   -0.3430 c         1 MOL      0.913659
    108 O17         0.7260   -1.2180    0.0810 o         1 MOL     -0.770570
    109 O18        -0.7230   -0.7890   -1.5200 o         1 MOL     -0.770570
    110 H47        -3.3240    2.2280    1.3820 hn        1 MOL      0.202330
    111 H48        -2.2040    1.0950   -1.0120 h1        1 MOL      0.079734
    112 H49        -1.1350   -0.1130    1.6010 hc        1 MOL      0.141256
    113 H50        -0.2680    1.2310    0.7980 hc        1 MOL      0.141256
    114 N11        -4.7060    0.3220   -0.0740 n         1 MOL     -0.546728
    115 C36        -5.8490   -0.5570   -0.4840 c3        1 MOL      0.300273
    116 C37        -6.1390   -1.7480    0.4080 c         1 MOL      0.194291
    117 O19        -6.1540   -1.5980    1.6370 o         1 MOL     -0.422872
    118 C38        -7.0040    0.4000   -0.6150 c3        1 MOL     -0.379679
    119 C39        -8.1200   -0.1390   -1.4490 ca        1 MOL      0.249563
    120 C40        -8.0890   -0.1650   -2.8240 ca        1 MOL     -0.283663
    121 C41        -9.2760   -0.6330   -0.8020 ca        1 MOL     -0.283663
    122 C42        -9.1290   -0.7860   -3.5300 ca        1 MOL     -0.020403
    123 C43       -10.3350   -1.2080   -1.5630 ca        1 MOL     -0.020403
    124 C44       -10.2440   -1.2540   -2.9490 ca        1 MOL     -0.185245
    125 H51        -4.8480    1.3080   -0.2140 hn        1 MOL      0.272852
    126 H52        -5.5680   -0.9720   -1.4560 h1        1 MOL      0.010426
    127 H53        -6.6080    1.3110   -1.0770 hc        1 MOL      0.133471
    128 H54        -7.3330    0.6660    0.3940 hc        1 MOL      0.133471
    129 H55        -7.2460    0.2660   -3.3430 ha        1 MOL      0.142199
    130 H56        -9.3800   -0.6760    0.2710 ha        1 MOL      0.142199
    131 H57        -9.1580   -0.7810   -4.6070 ha        1 MOL      0.080566
    132 H58       -11.2080   -1.6570   -1.1260 ha        1 MOL      0.080566
    133 H59       -10.9550   -1.8740   -3.4910 ha        1 MOL      0.111567
    134 N12        -6.3390   -2.9990   -0.1410 n         1 MOL      0.011434
    135 C45        -6.4480   -4.1780    0.7170 c3        1 MOL      0.044096
    136 C46        -5.3840   -4.2900    1.8320 c         1 MOL      0.301751
    137 O20        -5.6920   -4.8190    2.8710 o         1 MOL     -0.530893
    138 C47        -6.4270   -5.4100   -0.1650 c3        1 MOL     -0.058579
    139 C48        -7.0840   -4.9770   -1.4330 c3        1 MOL     -0.018524
    140 C49        -6.5030   -3.5290   -1.5030 c3        1 MOL     -0.083312
    141 H60        -7.4140   -4.0620    1.2160 h1        1 MOL      0.056876
    142 H61        -5.4540   -5.7950   -0.4760 hc        1 MOL      0.038017
    143 H62        -7.0650   -6.1740    0.2860 hc        1 MOL      0.038017
    144 H63        -6.7930   -5.6100   -2.2810 hc        1 MOL      0.028525
    145 H64        -8.1660   -4.9780   -1.3280 hc        1 MOL      0.028525
    146 H65        -5.5230   -3.5730   -1.9680 h1        1 MOL      0.048154
    147 H66        -7.1840   -2.9390   -2.1250 h1        1 MOL      0.048154
    148 N13        -4.1900   -3.8270    1.5780 n         1 MOL      0.024367
    149 C50        -3.1590   -4.0110    2.6590 c3        1 MOL     -0.260832
    150 C51        -3.1800   -2.9620    3.7810 c         1 MOL      0.438778
    151 O21        -2.4550   -3.0560    4.7780 o         1 MOL     -0.560552
    152 C52        -1.8070   -4.0320    2.0320 c3        1 MOL      0.205957
    153 C53        -1.5580   -5.1090    0.9930 c3        1 MOL     -0.418923
    154 C54        -0.7130   -4.4480   -0.1120 c         1 MOL      1.108323
    155 O22         0.4870   -4.4760    0.0140 o         1 MOL     -0.916952
    156 O23        -1.1920   -4.0420   -1.1570 o         1 MOL     -0.916952
    157 H67        -4.0160   -3.1730    0.8230 hn        1 MOL      0.103293
    158 H68        -3.3560   -4.9610    3.1500 h1        1 MOL      0.147320
    159 H69        -1.0570   -4.2160    2.8100 hc        1 MOL      0.017977
    160 H70        -1.5890   -3.0460    1.6330 hc        1 MOL      0.017977
    161 H71        -2.5000   -5.5440    0.6850 hc        1 MOL      0.062164
    162 H72        -0.9650   -5.8740    1.5050 hc        1 MOL      0.062164
    163 N14        -4.0110   -1.9390    3.6540 n         1 MOL     -0.079102
    164 C55        -4.3450   -0.9650    4.7320 c3        1 MOL     -0.233501
    165 H73        -5.2850   -1.2530    5.2030 h1        1 MOL      0.094197
    166 H74        -3.5520   -0.9620    5.4790 h1        1 MOL      0.094197
    167 H75        -4.4450    0.0320    4.3040 h1        1 MOL      0.094197
    168 H76        -4.6290   -1.9120    2.8540 hn        1 MOL      0.134901
    169 Ca1         0.8690   -2.8580   -2.0800 Ca        1 MOL      1.736898
    170 O24         0.6760   -5.2160   -3.1780 oh        1 MOL     -0.818610
    171 H77         0.9100   -5.5720   -4.0330 ho        1 MOL      0.405937
    172 H78         0.0830   -5.8760   -2.8030 ho        1 MOL      0.405937
    173 O25        -0.5440   -1.9240   -4.1800 oh        1 MOL     -0.818610
    174 H79        -1.2840   -1.4840   -3.7700 ho        1 MOL      0.405937
    175 H80        -0.8410   -2.0970   -5.0810 ho        1 MOL      0.405937
    176 O26         2.6500   -2.9490   -4.3090 oh        1 MOL     -0.818610
    177 H81         2.4170   -3.4590   -5.0860 ho        1 MOL      0.405937
    178 H82         3.4070   -2.4320   -4.5780 ho        1 MOL      0.405937
@<TRIPOS>BOND
     1    1    2 1   
     2    1    4 1   
     3    1    5 1   
     4    1    6 1   
     5    2    3 2   
     6    2    7 1   
     7    7    8 1   
     8    7   15 1   
     9    8    9 1   
    10    8   11 1   
    11    8   16 1   
    12    9   10 2   
    13    9   19 1   
    14   11   12 1   
    15   11   17 1   
    16   11   18 1   
    17   12   13 1   
    18   12   14 1   
    19   19   20 1   
    20   19   24 1   
    21   20   21 1   
    22   20   23 1   
    23   20   25 1   
    24   21   22 2   
    25   21   29 1   
    26   23   26 1   
    27   23   27 1   
    28   23   28 1   
    29   29   30 1   
    30   29   37 1   
    31   30   31 1   
    32   30   33 1   
    33   30   38 1   
    34   31   32 2   
    35   31   41 1   
    36   33   34 1   
    37   33   39 1   
    38   33   40 1   
    39   34   35 1   
    40   34   36 1   
    41   41   42 1   
    42   41   45 1   
    43   42   43 1   
    44   42   46 1   
    45   42   47 1   
    46   43   44 2   
    47   43   48 1   
    48   48   49 1   
    49   48   56 1   
    50   49   50 1   
    51   49   52 1   
    52   49   57 1   
    53   50   51 2   
    54   50   62 1   
    55   52   53 1   
    56   52   58 1   
    57   52   59 1   
    58   53   54 1   
    59   53   55 2   
    60   54   60 1   
    61   54   61 1   
    62   62   63 1   
    63   62   66 1   
    64   63   64 1   
    65   63   67 1   
    66   63   68 1   
    67   64   65 2   
    68   64   69 1   
    69   69   70 1   
    70   69   76 1   
    71   70   71 1   
    72   70   73 1   
    73   70   77 1   
    74   71   72 2   
    75   71   83 1   
    76   73   74 1   
    77   73   75 1   
    78   73   78 1   
    79   74   80 1   
    80   74   81 1   
    81   74   82 1   
    82   75   79 1   
    83   83   84 1   
    84   83   91 1   
    85   84   85 1   
    86   84   87 1   
    87   84   92 1   
    88   85   86 2   
    89   85  102 1   
    90   87   88 1   
    91   87   89 1   
    92   87   93 1   
    93   88   90 1   
    94   88   94 1   
    95   88   95 1   
    96   89   96 1   
    97   89   97 1   
    98   89   98 1   
    99   90   99 1   
   100   90  100 1   
   101   90  101 1   
   102  102  103 1   
   103  102  110 1   
   104  103  104 1   
   105  103  106 1   
   106  103  111 1   
   107  104  105 2   
   108  104  114 1   
   109  106  107 1   
   110  106  112 1   
   111  106  113 1   
   112  107  108 1   
   113  107  109 1   
   114  114  115 1   
   115  114  125 1   
   116  115  116 1   
   117  115  118 1   
   118  115  126 1   
   119  116  117 2   
   120  116  134 1   
   121  118  119 1   
   122  118  127 1   
   123  118  128 1   
   124  119  120 ar  
   125  119  121 ar  
   126  120  122 ar  
   127  120  129 1   
   128  121  123 ar  
   129  121  130 1   
   130  122  124 ar  
   131  122  131 1   
   132  123  124 ar  
   133  123  132 1   
   134  124  133 1   
   135  134  135 1   
   136  134  140 1   
   137  135  136 1   
   138  135  138 1   
   139  135  141 1   
   140  136  137 2   
   141  136  148 1   
   142  138  139 1   
   143  138  142 1   
   144  138  143 1   
   145  139  140 1   
   146  139  144 1   
   147  139  145 1   
   148  140  146 1   
   149  140  147 1   
   150  148  149 1   
   151  148  157 1   
   152  149  150 1   
   153  149  152 1   
   154  149  158 1   
   155  150  151 2   
   156  150  163 1   
   157  152  153 1   
   158  152  159 1   
   159  152  160 1   
   160  153  154 1   
   161  153  161 1   
   162  153  162 1   
   163  154  155 1   
   164  154  156 1   
   165  163  164 1   
   166  163  168 1   
   167  164  165 1   
   168  164  166 1   
   169  164  167 1   
   170  170  171 1   
   171  170  172 1   
   172  173  174 1   
   173  173  175 1   
   174  176  177 1   
   175  176  178 1   
@<TRIPOS>SUBSTRUCTURE
     1 MOL         1 TEMP              0 ****  ****    0 ROOT
