@<TRIPOS>MOLECULE
MOL
  192   187     1     0     0
SMALL
resp


@<TRIPOS>ATOM
      1 C1          5.1510    4.7070   -3.3310 c3        1 MOL     -0.467426
      2 C2          5.6290    3.5820   -2.3140 c         1 MOL      0.701519
      3 O1          4.8070    3.1310   -1.4860 o         1 MOL     -0.615612
      4 H1          4.0670    4.6650   -3.4360 hc        1 MOL      0.126473
      5 H2          5.4420    5.6870   -2.9520 hc        1 MOL      0.126473
      6 H3          5.6160    4.5410   -4.3030 hc        1 MOL      0.126473
      7 N1          6.8050    2.9770   -2.5250 n         1 MOL     -0.618296
      8 C3          7.3170    1.8560   -1.7640 c3        1 MOL      0.390218
      9 C4          6.2450    0.7760   -1.6570 c         1 MOL      0.175198
     10 O2          5.8030    0.5560   -0.5050 o         1 MOL     -0.499748
     11 C5          8.2580    2.1700   -0.5570 c3        1 MOL     -0.381213
     12 C6          7.7890    3.2270    0.3320 c         1 MOL      0.831231
     13 O3          6.6810    3.0940    0.9600 o         1 MOL     -0.738437
     14 O4          8.4560    4.2640    0.5100 o         1 MOL     -0.738437
     15 H4          7.3880    3.3300   -3.2760 hn        1 MOL      0.323378
     16 H5          7.9060    1.3870   -2.5620 h1        1 MOL     -0.009563
     17 H6          9.2020    2.4810   -1.0130 hc        1 MOL      0.102538
     18 H7          8.4230    1.2630    0.0360 hc        1 MOL      0.102538
     19 N2          5.9060    0.1550   -2.7780 n         1 MOL     -0.330322
     20 C7          5.0440   -0.9920   -2.9050 c3        1 MOL      0.000540
     21 C8          5.6420   -2.2670   -2.2410 c         1 MOL      0.436325
     22 O5          5.6680   -3.3240   -2.7980 o         1 MOL     -0.524534
     23 C9          3.5680   -0.7720   -2.5230 c3        1 MOL      0.337795
     24 C10         2.7010   -2.0370   -2.9610 c3        1 MOL     -0.290012
     25 C11         2.9110    0.5040   -3.0270 c3        1 MOL     -0.274897
     26 C12         2.7200   -2.2850   -4.4210 c3        1 MOL     -0.184678
     27 H8          6.2810    0.6920   -3.5420 hn        1 MOL      0.259277
     28 H9          5.0080   -1.2170   -3.9690 h1        1 MOL      0.067655
     29 H10         3.5120   -0.6240   -1.4400 hc        1 MOL     -0.096670
     30 H11         1.7070   -1.8190   -2.5750 hc        1 MOL      0.148003
     31 H12         2.9900   -3.0110   -2.5540 hc        1 MOL      0.148003
     32 H13         3.1490    0.6950   -4.0720 hc        1 MOL      0.054451
     33 H14         1.8240    0.4250   -2.9440 hc        1 MOL      0.054451
     34 H15         3.2330    1.3750   -2.4560 hc        1 MOL      0.054451
     35 H16         2.1490   -3.1930   -4.6370 hc        1 MOL      0.037064
     36 H17         2.2510   -1.4690   -4.9720 hc        1 MOL      0.037064
     37 H18         3.7490   -2.3970   -4.7770 hc        1 MOL      0.037064
     38 N3          6.1710   -2.1890   -1.0010 n         1 MOL     -0.347403
     39 C13         6.8180   -3.3160   -0.3120 c3        1 MOL      0.242451
     40 C14         5.9030   -4.5990   -0.2160 c         1 MOL      0.580281
     41 O6          6.3720   -5.6820   -0.4800 o         1 MOL     -0.608986
     42 C15         7.4790   -3.0030    1.0650 c3        1 MOL     -0.329112
     43 C16         8.9330   -2.5840    1.0210 c         1 MOL      0.685770
     44 O7          9.4660   -2.3500   -0.0970 o         1 MOL     -0.701942
     45 O8          9.5760   -2.2760    2.0840 o         1 MOL     -0.701942
     46 H19         6.1110   -1.3690   -0.4190 hn        1 MOL      0.306662
     47 H20         7.6670   -3.6770   -0.9010 h1        1 MOL      0.009570
     48 H21         7.3780   -3.8790    1.7120 hc        1 MOL      0.106592
     49 H22         7.0000   -2.1900    1.6050 hc        1 MOL      0.106592
     50 N4          4.6190   -4.5570    0.0610 n         1 MOL     -0.512525
     51 C17         3.7710   -3.5540    0.6790 c3        1 MOL     -0.014912
     52 C18         4.1420   -3.3020    2.1420 c         1 MOL      0.491202
     53 O9          5.0280   -3.9140    2.7200 o         1 MOL     -0.526350
     54 H23         4.2660   -5.4960    0.0750 hn        1 MOL      0.281031
     55 H24         2.7200   -3.8170    0.5890 h1        1 MOL      0.094411
     56 H25         3.8370   -2.5980    0.1650 h1        1 MOL      0.094411
     57 N5          3.3530   -2.4370    2.8720 n         1 MOL     -0.531346
     58 C19         2.0550   -1.8040    2.5030 c3        1 MOL      0.166572
     59 C20         2.1980   -0.8350    1.2980 c         1 MOL      0.159518
     60 O10         3.2510   -0.2070    1.1650 o         1 MOL     -0.487215
     61 C21         1.5790   -1.0880    3.8280 c3        1 MOL     -0.278893
     62 C22         2.6430   -0.5050    4.6930 c         1 MOL      0.843857
     63 O11         3.4180   -1.2550    5.2840 o         1 MOL     -0.715666
     64 O12         2.6940    0.7260    4.7630 o         1 MOL     -0.715666
     65 H26         3.6280   -2.2190    3.8180 hn        1 MOL      0.344794
     66 H27         1.3370   -2.6010    2.2890 h1        1 MOL      0.043572
     67 H28         1.0380   -1.8420    4.3880 hc        1 MOL      0.037516
     68 H29         0.8650   -0.3330    3.4760 hc        1 MOL      0.037516
     69 N6          1.0790   -0.4750    0.6400 n         1 MOL      0.018385
     70 C23        -0.2860   -1.0120    0.7310 c3        1 MOL     -0.072213
     71 C24        -0.4060   -2.4440    0.1700 c         1 MOL      0.331600
     72 O13         0.4940   -3.0900   -0.4500 o         1 MOL     -0.458762
     73 H30         1.2550    0.3560    0.0950 hn        1 MOL      0.063922
     74 H31        -1.0210   -0.3430    0.2820 h1        1 MOL      0.072297
     75 H32        -0.5740   -0.9630    1.7840 h1        1 MOL      0.072297
     76 N7         -1.5880   -3.0230    0.4340 n         1 MOL     -0.267326
     77 C25        -2.1430   -4.3310    0.0030 c3        1 MOL     -0.201917
     78 C26        -2.3900   -4.3540   -1.5130 c         1 MOL      0.441102
     79 O14        -2.3160   -5.3550   -2.1770 o         1 MOL     -0.467422
     80 C27        -3.3900   -4.8540    0.7110 c3        1 MOL      0.025034
     81 C28        -3.0960   -5.1800    2.1610 c3        1 MOL     -0.234507
     82 C29        -1.9690   -6.1000    2.4080 c         1 MOL      0.701441
     83 N8         -1.1520   -5.8550    3.4590 n         1 MOL     -0.831006
     84 O15        -1.7280   -7.0770    1.7170 o         1 MOL     -0.565917
     85 H33        -2.2930   -2.4280    0.8420 hn        1 MOL      0.250505
     86 H34        -1.2950   -5.0180    0.1070 h1        1 MOL      0.192961
     87 H35        -3.6990   -5.7570    0.1790 hc        1 MOL      0.070545
     88 H36        -4.2220   -4.1570    0.6170 hc        1 MOL      0.070545
     89 H37        -3.9220   -5.7010    2.6440 hc        1 MOL      0.055314
     90 H38        -2.9050   -4.2970    2.7630 hc        1 MOL      0.055314
     91 H39        -1.3200   -5.0630    4.0670 hn        1 MOL      0.381307
     92 H40        -0.3880   -6.4790    3.6590 hn        1 MOL      0.381307
     93 N9         -2.8950   -3.1830   -2.0040 n         1 MOL     -0.311815
     94 C30        -3.2550   -3.0780   -3.3940 c3        1 MOL     -0.179925
     95 C31        -4.6460   -2.3490   -3.5760 c         1 MOL      0.523925
     96 O16        -5.1050   -2.4420   -4.7600 o         1 MOL     -0.573842
     97 C32        -2.2260   -2.3810   -4.2910 c3        1 MOL      0.233312
     98 C33        -0.9840   -3.2810   -4.3450 c3        1 MOL     -0.275607
     99 C34        -1.7580   -1.0630   -3.7020 c3        1 MOL     -0.275607
    100 H41        -3.0210   -2.3820   -1.4040 hn        1 MOL      0.272983
    101 H42        -3.3910   -4.0460   -3.8810 h1        1 MOL      0.145795
    102 H43        -2.5980   -2.2890   -5.3150 hc        1 MOL      0.008947
    103 H44        -0.4540   -3.1230   -3.4090 hc        1 MOL      0.069318
    104 H45        -1.2980   -4.3230   -4.2950 hc        1 MOL      0.069318
    105 H46        -0.3740   -2.9970   -5.1990 hc        1 MOL      0.069318
    106 H47        -2.6890   -0.5810   -3.3830 hc        1 MOL      0.069318
    107 H48        -1.1150   -1.1910   -2.8250 hc        1 MOL      0.069318
    108 H49        -1.2010   -0.4390   -4.3920 hc        1 MOL      0.069318
    109 N10        -5.3410   -1.8270   -2.5860 n         1 MOL     -0.331567
    110 C35        -6.6510   -1.2080   -2.5320 c3        1 MOL      0.231716
    111 C36        -6.8160    0.1680   -1.8260 c         1 MOL      0.421841
    112 O17        -7.4790    1.0100   -2.4090 o         1 MOL     -0.520392
    113 C37        -7.7970   -2.1520   -1.8670 c3        1 MOL     -0.364691
    114 C38        -7.5160   -2.6250   -0.4520 c         1 MOL      0.575850
    115 N11        -8.2940   -3.5340    0.1110 n         1 MOL     -0.752799
    116 O18        -6.5390   -2.2480    0.1350 o         1 MOL     -0.471474
    117 H50        -4.7470   -1.7330   -1.7770 hn        1 MOL      0.127084
    118 H51        -6.9820   -1.1310   -3.5690 h1        1 MOL      0.055132
    119 H52        -7.9480   -2.9920   -2.5500 hc        1 MOL      0.110509
    120 H53        -8.7280   -1.5900   -1.8950 hc        1 MOL      0.110509
    121 H54        -9.0920   -3.8140   -0.4370 hn        1 MOL      0.361198
    122 H55        -8.2300   -3.8390    1.0690 hn        1 MOL      0.361198
    123 N12        -6.1540    0.4170   -0.6910 n         1 MOL     -0.308315
    124 C39        -6.3680    1.5680    0.1360 c3        1 MOL     -0.204003
    125 C40        -5.0240    2.3520    0.4190 c         1 MOL      0.804914
    126 O19        -3.9010    1.9410    0.0630 o         1 MOL     -0.594961
    127 C41        -7.0420    1.2690    1.4640 c3        1 MOL     -0.121411
    128 C42        -8.3580    0.5300    1.3150 ca        1 MOL     -0.040106
    129 C43        -8.7260   -0.4630    2.2360 ca        1 MOL     -0.113618
    130 C44        -9.2980    0.9020    0.3040 ca        1 MOL     -0.113618
    131 C45        -9.9900   -1.1200    2.1580 ca        1 MOL     -0.252983
    132 C46       -10.6660    0.2700    0.2330 ca        1 MOL     -0.252983
    133 C47       -10.9570   -0.7630    1.1840 ca        1 MOL      0.272395
    134 O20       -12.1980   -1.3450    1.1950 oh        1 MOL     -0.516304
    135 H56        -5.6610   -0.3650   -0.2900 hn        1 MOL      0.281875
    136 H57        -6.9410    2.2240   -0.5280 h1        1 MOL      0.101931
    137 H58        -7.2860    2.1860    2.0070 hc        1 MOL      0.118210
    138 H59        -6.4040    0.6880    2.1420 hc        1 MOL      0.118210
    139 H60        -7.9860   -0.6940    2.9890 ha        1 MOL      0.127841
    140 H61        -9.0340    1.6430   -0.4360 ha        1 MOL      0.127841
    141 H62       -10.2510   -1.9500    2.7950 ha        1 MOL      0.132984
    142 H63       -11.3460    0.6990   -0.4770 ha        1 MOL      0.132984
    143 H64       -12.7290   -1.2000    0.4150 ho        1 MOL      0.371986
    144 N13        -5.2040    3.5330    1.0380 n         1 MOL     -0.712553
    145 C48        -4.1740    4.4300    1.7250 c3        1 MOL      0.100297
    146 C49        -3.0770    5.0070    0.7570 c         1 MOL      0.536328
    147 O21        -2.5530    6.0500    1.0710 o         1 MOL     -0.533172
    148 C50        -3.4390    3.7300    2.9140 c3        1 MOL     -0.064820
    149 C51        -4.3510    3.5290    4.1100 c3        1 MOL     -0.157772
    150 C52        -3.5590    2.9180    5.2850 c         1 MOL      0.666536
    151 O22        -3.7340    1.6690    5.4800 o         1 MOL     -0.718976
    152 O23        -3.0150    3.6560    6.1610 o         1 MOL     -0.718976
    153 H65        -6.1510    3.8680    1.0900 hn        1 MOL      0.344029
    154 H66        -4.6810    5.3280    2.0750 h1        1 MOL      0.070258
    155 H67        -2.6330    4.3950    3.2360 hc        1 MOL      0.069421
    156 H68        -2.9360    2.7880    2.6940 hc        1 MOL      0.069421
    157 H69        -5.1070    2.8020    3.7890 hc        1 MOL      0.004373
    158 H70        -4.7520    4.5010    4.4120 hc        1 MOL      0.004373
    159 N14        -2.8570    4.4640   -0.4510 n         1 MOL     -0.568976
    160 C53        -1.7320    4.7830   -1.4420 c3        1 MOL      0.141514
    161 C54        -2.1170    5.7980   -2.5400 c         1 MOL      0.417947
    162 O24        -1.3340    6.6140   -2.9600 o         1 MOL     -0.530998
    163 C55        -1.1980    3.5820   -2.0670 c3        1 MOL     -0.150843
    164 C56        -0.5390    2.6290   -1.0120 c3        1 MOL      0.312024
    165 C57         0.8250    3.1150   -0.5270 c         1 MOL      0.718221
    166 O25         1.6310    2.2000   -0.1650 o         1 MOL     -0.685682
    167 O26         1.0930    4.3050   -0.3820 o         1 MOL     -0.685682
    168 H71        -3.3670    3.6290   -0.7270 hn        1 MOL      0.285662
    169 H72        -0.9810    5.3550   -0.9040 h1        1 MOL      0.120579
    170 H73        -0.3840    3.8420   -2.7350 hc        1 MOL      0.008226
    171 H74        -1.9570    2.9860   -2.5880 hc        1 MOL      0.008226
    172 H75        -0.4500    1.6570   -1.4890 hc        1 MOL     -0.088865
    173 H76        -1.1050    2.4380   -0.1000 hc        1 MOL     -0.088865
    174 N15        -3.3000    5.7350   -3.1080 n         1 MOL     -0.214518
    175 C58        -3.6450    6.3920   -4.3610 c3        1 MOL     -0.136633
    176 H77        -4.3400    7.2090   -4.1630 h1        1 MOL      0.069132
    177 H78        -2.7420    6.7870   -4.8250 h1        1 MOL      0.069132
    178 H79        -4.1140    5.6720   -5.0320 h1        1 MOL      0.069132
    179 H80        -4.0250    5.1980   -2.6530 hn        1 MOL      0.196502
    180 Ca1         4.1440    2.2150    0.9260 Ca        1 MOL      1.847305
    181 O27         5.7830    1.2900    2.9600 oh        1 MOL     -0.867699
    182 O28         4.9330    4.1440    2.9640 oh        1 MOL     -0.867699
    183 H81         6.5700    0.7690    3.0950 ho        1 MOL      0.409367
    184 H82         4.5940    4.7760    3.5960 ho        1 MOL      0.409367
    185 H83         5.3760    1.3490    3.8270 ho        1 MOL      0.409367
    186 H84         5.8680    4.0940    3.1650 ho        1 MOL      0.409367
    187 O29         3.5610    4.8510    0.2850 oh        1 MOL     -0.867699
    188 H85         2.6750    4.7210   -0.0510 ho        1 MOL      0.409367
    189 H86         3.4800    5.5940    0.8800 ho        1 MOL      0.409367
    190 O30         2.2180    2.5060    2.7290 oh        1 MOL     -0.867699
    191 H87         1.2930    2.7160    2.8540 ho        1 MOL      0.409367
    192 H88         2.4680    2.0420    3.5270 ho        1 MOL      0.409367
@<TRIPOS>BOND
     1    1    2 1   
     2    1    4 1   
     3    1    5 1   
     4    1    6 1   
     5    2    3 2   
     6    2    7 1   
     7    7    8 1   
     8    7   15 1   
     9    8    9 1   
    10    8   11 1   
    11    8   16 1   
    12    9   10 2   
    13    9   19 1   
    14   11   12 1   
    15   11   17 1   
    16   11   18 1   
    17   12   13 1   
    18   12   14 1   
    19   19   20 1   
    20   19   27 1   
    21   20   21 1   
    22   20   23 1   
    23   20   28 1   
    24   21   22 2   
    25   21   38 1   
    26   23   24 1   
    27   23   25 1   
    28   23   29 1   
    29   24   26 1   
    30   24   30 1   
    31   24   31 1   
    32   25   32 1   
    33   25   33 1   
    34   25   34 1   
    35   26   35 1   
    36   26   36 1   
    37   26   37 1   
    38   38   39 1   
    39   38   46 1   
    40   39   40 1   
    41   39   42 1   
    42   39   47 1   
    43   40   41 2   
    44   40   50 1   
    45   42   43 1   
    46   42   48 1   
    47   42   49 1   
    48   43   44 1   
    49   43   45 1   
    50   50   51 1   
    51   50   54 1   
    52   51   52 1   
    53   51   55 1   
    54   51   56 1   
    55   52   53 2   
    56   52   57 1   
    57   57   58 1   
    58   57   65 1   
    59   58   59 1   
    60   58   61 1   
    61   58   66 1   
    62   59   60 2   
    63   59   69 1   
    64   61   62 1   
    65   61   67 1   
    66   61   68 1   
    67   62   63 1   
    68   62   64 1   
    69   69   70 1   
    70   69   73 1   
    71   70   71 1   
    72   70   74 1   
    73   70   75 1   
    74   71   72 2   
    75   71   76 1   
    76   76   77 1   
    77   76   85 1   
    78   77   78 1   
    79   77   80 1   
    80   77   86 1   
    81   78   79 2   
    82   78   93 1   
    83   80   81 1   
    84   80   87 1   
    85   80   88 1   
    86   81   82 1   
    87   81   89 1   
    88   81   90 1   
    89   82   83 1   
    90   82   84 2   
    91   83   91 1   
    92   83   92 1   
    93   93   94 1   
    94   93  100 1   
    95   94   95 1   
    96   94   97 1   
    97   94  101 1   
    98   95   96 2   
    99   95  109 1   
   100   97   98 1   
   101   97   99 1   
   102   97  102 1   
   103   98  103 1   
   104   98  104 1   
   105   98  105 1   
   106   99  106 1   
   107   99  107 1   
   108   99  108 1   
   109  109  110 1   
   110  109  117 1   
   111  110  111 1   
   112  110  113 1   
   113  110  118 1   
   114  111  112 2   
   115  111  123 1   
   116  113  114 1   
   117  113  119 1   
   118  113  120 1   
   119  114  115 1   
   120  114  116 2   
   121  115  121 1   
   122  115  122 1   
   123  123  124 1   
   124  123  135 1   
   125  124  125 1   
   126  124  127 1   
   127  124  136 1   
   128  125  126 2   
   129  125  144 1   
   130  127  128 1   
   131  127  137 1   
   132  127  138 1   
   133  128  129 ar  
   134  128  130 ar  
   135  129  131 ar  
   136  129  139 1   
   137  130  132 ar  
   138  130  140 1   
   139  131  133 ar  
   140  131  141 1   
   141  132  133 ar  
   142  132  142 1   
   143  133  134 1   
   144  134  143 1   
   145  144  145 1   
   146  144  153 1   
   147  145  146 1   
   148  145  148 1   
   149  145  154 1   
   150  146  147 2   
   151  146  159 1   
   152  148  149 1   
   153  148  155 1   
   154  148  156 1   
   155  149  150 1   
   156  149  157 1   
   157  149  158 1   
   158  150  151 1   
   159  150  152 1   
   160  159  160 1   
   161  159  168 1   
   162  160  161 1   
   163  160  163 1   
   164  160  169 1   
   165  161  162 2   
   166  161  174 1   
   167  163  164 1   
   168  163  170 1   
   169  163  171 1   
   170  164  165 1   
   171  164  172 1   
   172  164  173 1   
   173  165  166 1   
   174  165  167 1   
   175  174  175 1   
   176  174  179 1   
   177  175  176 1   
   178  175  177 1   
   179  175  178 1   
   180  181  183 1   
   181  181  185 1   
   182  182  184 1   
   183  182  186 1   
   184  187  188 1   
   185  187  189 1   
   186  190  191 1   
   187  190  192 1   
@<TRIPOS>SUBSTRUCTURE
     1 MOL         1 TEMP              0 ****  ****    0 ROOT
