@<TRIPOS>MOLECULE
MOL
  185   180     1     0     0
SMALL
resp


@<TRIPOS>ATOM
      1 C1          7.1910    1.7590    4.6190 c3        1 MOL     -0.359392
      2 C2          7.5670    1.9650    3.1190 c         1 MOL      0.467565
      3 O1          6.9070    2.6030    2.2920 o         1 MOL     -0.418016
      4 H1          6.3110    1.1200    4.6880 hc        1 MOL      0.100153
      5 H2          8.0230    1.2870    5.1420 hc        1 MOL      0.100153
      6 H3          6.9750    2.7250    5.0760 hc        1 MOL      0.100153
      7 N1          8.8080    1.6010    2.8170 n         1 MOL     -0.301874
      8 C3          9.3520    1.7710    1.4700 c3        1 MOL      0.041709
      9 C4          8.8800    0.8020    0.3230 c         1 MOL      0.590355
     10 O2          8.7920    1.2720   -0.8180 o         1 MOL     -0.535535
     11 C5          9.5350    3.3130    1.1080 c3        1 MOL     -0.201840
     12 C6         10.2430    4.1460    2.1830 c         1 MOL      0.726592
     13 O3          9.8410    5.2850    2.5080 o         1 MOL     -0.641524
     14 O4         11.2930    3.7450    2.6380 o         1 MOL     -0.641524
     15 H4          9.4110    1.1600    3.5070 hn        1 MOL      0.251858
     16 H5         10.3950    1.4680    1.6140 h1        1 MOL     -0.004114
     17 H6          8.6420    3.8960    0.8980 hc        1 MOL      0.060378
     18 H7         10.0700    3.3060    0.1570 hc        1 MOL      0.060378
     19 N2          8.3430   -0.3810    0.6650 n         1 MOL     -0.440746
     20 C7          7.6820   -1.3720   -0.2220 c3        1 MOL      0.222714
     21 C8          6.2200   -1.6990    0.2680 c         1 MOL      0.498080
     22 O5          5.8720   -1.5920    1.4530 o         1 MOL     -0.500506
     23 C9          8.5900   -2.5770   -0.4090 c3        1 MOL     -0.096815
     24 C10         9.8930   -2.1870   -1.0400 c3        1 MOL     -0.331770
     25 C11        10.8030   -3.3880   -1.0160 c3        1 MOL      0.291057
     26 C12        12.0700   -3.2880   -1.9050 c3        1 MOL     -0.085689
     27 N3         12.8020   -4.5730   -2.0910 n4        1 MOL     -0.243239
     28 H8          8.2840   -0.6100    1.6450 hn        1 MOL      0.196517
     29 H9          7.5630   -0.9320   -1.2150 h1        1 MOL      0.051131
     30 H10         8.0970   -3.3770   -0.9540 hc        1 MOL      0.038244
     31 H11         8.7130   -3.1360    0.5160 hc        1 MOL      0.038244
     32 H12        10.4950   -1.4410   -0.5240 hc        1 MOL      0.097070
     33 H13         9.6430   -1.8010   -2.0270 hc        1 MOL      0.097070
     34 H14        10.2780   -4.3020   -1.3030 hc        1 MOL     -0.026264
     35 H15        11.1380   -3.6800   -0.0180 hc        1 MOL     -0.026264
     36 H16        12.7310   -2.5480   -1.4720 hx        1 MOL      0.095217
     37 H17        11.7370   -3.0720   -2.9280 hx        1 MOL      0.095217
     38 H18        13.6270   -4.3990   -2.6550 hn        1 MOL      0.232883
     39 H19        13.1100   -4.9900   -1.2200 hn        1 MOL      0.232883
     40 H20        12.2290   -5.1750   -2.6700 hn        1 MOL      0.232883
     41 N4          5.2760   -1.9860   -0.6880 n         1 MOL     -0.488149
     42 C13         3.9010   -2.2460   -0.2580 c3        1 MOL     -0.063678
     43 C14         3.2740   -3.2090   -1.2340 c         1 MOL      0.509534
     44 O6          3.4010   -2.9320   -2.3640 o         1 MOL     -0.444832
     45 C15         3.0580   -1.0070   -0.1020 c3        1 MOL     -0.163601
     46 C16         1.6360   -1.2530    0.5210 c         1 MOL      0.652550
     47 O7          1.2760   -0.8310    1.6290 o         1 MOL     -0.702336
     48 O8          0.7420   -1.6370   -0.2480 o         1 MOL     -0.702336
     49 H21         5.5770   -2.0900   -1.6390 hn        1 MOL      0.288148
     50 H22         3.8460   -2.7400    0.7140 h1        1 MOL      0.076813
     51 H23         2.9410   -0.4670   -1.0380 hc        1 MOL      0.125792
     52 H24         3.6660   -0.3290    0.4930 hc        1 MOL      0.125792
     53 N5          2.5340   -4.2620   -0.8580 n         1 MOL     -0.340088
     54 C17         1.8630   -5.2400   -1.6540 c3        1 MOL     -0.041276
     55 C18         0.9400   -4.6830   -2.7310 c         1 MOL      0.517043
     56 O9          0.9360   -5.0880   -3.8910 o         1 MOL     -0.533413
     57 H25         2.5520   -4.4070    0.1380 hn        1 MOL      0.247595
     58 H26         1.1630   -5.8240   -1.0460 h1        1 MOL      0.067896
     59 H27         2.5810   -5.9910   -1.9830 h1        1 MOL      0.067896
     60 N6          0.1950   -3.6000   -2.3650 n         1 MOL     -0.404342
     61 C19        -0.6370   -2.7590   -3.2150 c3        1 MOL      0.256857
     62 C20        -0.1800   -1.2190   -3.4700 c         1 MOL      0.335426
     63 O10        -0.9590   -0.3820   -3.8950 o         1 MOL     -0.488091
     64 C21        -2.1330   -2.9210   -2.9560 c3        1 MOL     -0.416351
     65 C22        -2.6940   -1.9150   -1.9670 c         1 MOL      0.757327
     66 N7         -3.6730   -1.2460   -2.4960 n         1 MOL     -0.819534
     67 O11        -2.3530   -1.8680   -0.8300 o         1 MOL     -0.637956
     68 H28         0.3770   -3.2380   -1.4430 hn        1 MOL      0.203489
     69 H29        -0.4940   -3.2030   -4.1990 h1        1 MOL      0.059347
     70 H30        -2.3190   -3.9350   -2.6150 hc        1 MOL      0.120011
     71 H31        -2.5040   -2.7370   -3.9630 hc        1 MOL      0.120011
     72 H32        -3.7920   -1.3380   -3.4980 hn        1 MOL      0.365065
     73 H33        -3.9830   -0.4710   -1.9420 hn        1 MOL      0.365065
     74 N8          1.1420   -1.0010   -3.2190 n         1 MOL     -0.157358
     75 C23         1.8720    0.2110   -3.5680 c3        1 MOL     -0.150590
     76 C24         1.3250    1.4410   -2.9510 c         1 MOL      0.545052
     77 O12         1.4800    2.5120   -3.5900 o         1 MOL     -0.540552
     78 H34         1.6600   -1.7980   -2.8430 hn        1 MOL      0.118189
     79 H35         1.9390    0.2860   -4.6470 h1        1 MOL      0.103117
     80 H36         2.9020    0.1220   -3.2250 h1        1 MOL      0.103117
     81 N9          0.7330    1.2590   -1.7220 n         1 MOL     -0.298251
     82 C25         0.1980    2.2780   -0.8030 c3        1 MOL     -0.006440
     83 C26        -1.1830    1.7920   -0.1770 c         1 MOL      0.450186
     84 O13        -1.2770    0.6300    0.2020 o         1 MOL     -0.372764
     85 C27         1.1570    2.5380    0.3710 c3        1 MOL     -0.025034
     86 C28         2.2770    3.4840    0.0770 ca        1 MOL      0.164863
     87 C29         3.5840    2.9720    0.2480 ca        1 MOL     -0.297054
     88 C30         2.0510    4.8380   -0.2720 ca        1 MOL     -0.297054
     89 C31         4.6820    3.7400   -0.1210 ca        1 MOL     -0.117481
     90 C32         3.1640    5.5900   -0.6160 ca        1 MOL     -0.117481
     91 C33         4.4940    5.0680   -0.5500 ca        1 MOL      0.233744
     92 O14         5.6100    5.7480   -0.7060 oh        1 MOL     -0.411540
     93 H37         0.6190    0.3400   -1.3260 hn        1 MOL      0.167262
     94 H38         0.0710    3.2010   -1.3730 h1        1 MOL      0.062515
     95 H39         1.5980    1.5870    0.6800 hc        1 MOL      0.017137
     96 H40         0.5660    2.9580    1.1890 hc        1 MOL      0.017137
     97 H41         3.7940    1.9570    0.5490 ha        1 MOL      0.145939
     98 H42         1.0450    5.2350   -0.2010 ha        1 MOL      0.145939
     99 H43         5.6650    3.3450    0.0910 ha        1 MOL      0.097361
    100 H44         2.9850    6.5900   -1.0010 ha        1 MOL      0.097361
    101 H45         5.4210    6.6450   -0.9900 ho        1 MOL      0.350707
    102 N10        -2.2050    2.6650   -0.0230 n         1 MOL     -0.493867
    103 C34        -3.5770    2.2790    0.5170 c3        1 MOL      0.062301
    104 C35        -4.3980    1.7440   -0.6640 c         1 MOL      0.175997
    105 O15        -4.8570    0.6010   -0.7270 o         1 MOL     -0.129225
    106 C36        -4.2450    3.5050    1.1440 c3        1 MOL      0.139789
    107 C37        -3.3970    4.0350    2.2940 c3        1 MOL     -0.028698
    108 C38        -5.6210    3.1820    1.6320 c3        1 MOL     -0.364057
    109 C39        -3.2600    3.1610    3.5330 c3        1 MOL     -0.054031
    110 H46        -2.0740    3.6390   -0.2550 hn        1 MOL      0.289866
    111 H47        -3.4460    1.5670    1.3420 h1        1 MOL      0.068074
    112 H48        -4.2750    4.2880    0.3820 hc        1 MOL     -0.037428
    113 H49        -3.8770    4.9500    2.6380 hc        1 MOL      0.010240
    114 H50        -2.4540    4.3230    1.8310 hc        1 MOL      0.010240
    115 H51        -6.2890    2.9190    0.8040 hc        1 MOL      0.103555
    116 H52        -5.4940    2.3150    2.2790 hc        1 MOL      0.103555
    117 H53        -6.0990    4.0060    2.1590 hc        1 MOL      0.103555
    118 H54        -2.8490    3.7070    4.3790 hc        1 MOL      0.031078
    119 H55        -4.1930    2.6820    3.8370 hc        1 MOL      0.031078
    120 H56        -2.4400    2.4510    3.3620 hc        1 MOL      0.031078
    121 N11        -4.6880    2.6910   -1.6220 n         1 MOL     -0.287773
    122 C40        -5.2500    2.5240   -2.9320 c3        1 MOL     -0.059785
    123 C41        -6.7790    2.3320   -2.9030 c         1 MOL      0.392376
    124 O16        -7.2490    1.4510   -3.6470 o         1 MOL     -0.452615
    125 C42        -4.8960    3.7470   -3.8180 c3        1 MOL      0.224014
    126 O17        -3.4820    3.8900   -3.6300 oh        1 MOL     -0.610171
    127 H57        -4.1650    3.5340   -1.4300 hn        1 MOL      0.322545
    128 H58        -4.9030    1.6090   -3.4170 h1        1 MOL      0.088568
    129 H59        -5.3890    4.6410   -3.4200 h1        1 MOL      0.038567
    130 H60        -5.2050    3.5850   -4.8580 h1        1 MOL      0.038567
    131 H61        -3.1310    3.2370   -4.2390 ho        1 MOL      0.418923
    132 N12        -7.4890    3.0950   -2.0640 n         1 MOL     -0.468685
    133 C43        -8.9280    2.8790   -1.7170 c3        1 MOL      0.351057
    134 C44        -9.1520    1.3530   -1.3210 c         1 MOL      0.395188
    135 O18       -10.2440    0.7730   -1.4470 o         1 MOL     -0.501268
    136 C45        -9.8040    3.3190   -2.8350 c3        1 MOL     -0.303846
    137 H62        -7.0170    3.7890   -1.4980 hn        1 MOL      0.278020
    138 H63        -9.1420    3.5180   -0.8550 h1        1 MOL      0.036486
    139 H64        -9.5920    4.3850   -2.9480 hc        1 MOL      0.085624
    140 H65        -9.6670    2.7510   -3.7600 hc        1 MOL      0.085624
    141 H66       -10.8050    3.2620   -2.4220 hc        1 MOL      0.085624
    142 N13        -8.1460    0.6960   -0.6670 n         1 MOL     -0.368867
    143 C46        -8.1560   -0.7770   -0.3520 c3        1 MOL      0.426357
    144 C47        -7.4850   -1.1270    0.9870 c         1 MOL      0.208422
    145 O19        -6.7020   -0.3400    1.5430 o         1 MOL     -0.368531
    146 C48        -7.3740   -1.4380   -1.4960 c3        1 MOL     -0.369197
    147 H67        -7.2050    1.0520   -0.5930 hn        1 MOL     -0.048598
    148 H68        -9.1440   -1.2200   -0.3860 h1        1 MOL     -0.001397
    149 H69        -6.3640   -1.0270   -1.5560 hc        1 MOL      0.101378
    150 H70        -7.3130   -2.5090   -1.2610 hc        1 MOL      0.101378
    151 H71        -7.8750   -1.2260   -2.4420 hc        1 MOL      0.101378
    152 N14        -7.7030   -2.3240    1.5200 n         1 MOL     -0.204242
    153 C49        -7.3700   -2.6830    2.9240 c3        1 MOL     -0.346900
    154 C50        -7.9290   -1.7270    4.0460 c         1 MOL      0.501392
    155 O20        -7.2970   -1.6210    5.0950 o         1 MOL     -0.486385
    156 C51        -5.9210   -3.0720    3.2330 c3        1 MOL      0.343786
    157 C52        -5.2050   -3.9040    2.1410 c3        1 MOL      0.002551
    158 C53        -3.7850   -4.2930    2.6040 c         1 MOL      0.632559
    159 O21        -3.5160   -5.5040    2.7510 o         1 MOL     -0.693478
    160 O22        -2.9950   -3.3870    2.7950 o         1 MOL     -0.693478
    161 H72        -8.4430   -2.8240    1.0470 hn        1 MOL      0.245294
    162 H73        -7.8600   -3.6260    3.1800 h1        1 MOL      0.137063
    163 H74        -5.7570   -3.5590    4.1940 hc        1 MOL     -0.050104
    164 H75        -5.3030   -2.1770    3.2460 hc        1 MOL     -0.050104
    165 H76        -5.1620   -3.2380    1.2790 hc        1 MOL     -0.079165
    166 H77        -5.8010   -4.7970    1.9690 hc        1 MOL     -0.079165
    167 N15        -8.9990   -0.9780    3.7470 n         1 MOL     -0.318230
    168 C54        -9.4650    0.1800    4.5710 c3        1 MOL     -0.219209
    169 H78        -9.7540   -0.1720    5.5610 h1        1 MOL      0.113247
    170 H79        -8.6580    0.9070    4.6660 h1        1 MOL      0.113247
    171 H80       -10.3220    0.6500    4.0880 h1        1 MOL      0.113247
    172 H81        -9.4190   -1.0770    2.8320 hn        1 MOL      0.235962
    173 Ca1        -1.2830   -1.8000    1.6180 Ca        1 MOL      1.724096
    174 O23        -1.3770   -0.0610    3.6590 oh        1 MOL     -0.861845
    175 H82        -0.5560    0.4150    3.5530 ho        1 MOL      0.425730
    176 H83        -1.4710   -0.1580    4.6110 ho        1 MOL      0.425730
    177 O24         0.2040   -2.8480    3.5340 oh        1 MOL     -0.861845
    178 H84         0.9140   -2.5540    4.1150 ho        1 MOL      0.425730
    179 H85         0.0560   -3.7610    3.7730 ho        1 MOL      0.425730
    180 O25        -0.5480   -4.2010    0.9930 oh        1 MOL     -0.861845
    181 H86         0.2630   -4.7030    0.9980 ho        1 MOL      0.425730
    182 H87        -1.1640   -4.7480    0.5060 ho        1 MOL      0.425730
    183 O26        -3.8390   -0.7500    1.2810 oh        1 MOL     -0.861845
    184 H88        -4.6440   -0.5440    1.7390 ho        1 MOL      0.425730
    185 H89        -4.0380   -0.5950    0.3500 ho        1 MOL      0.425730
@<TRIPOS>BOND
     1    1    2 1   
     2    1    4 1   
     3    1    5 1   
     4    1    6 1   
     5    2    3 2   
     6    2    7 1   
     7    7    8 1   
     8    7   15 1   
     9    8    9 1   
    10    8   11 1   
    11    8   16 1   
    12    9   10 2   
    13    9   19 1   
    14   11   12 1   
    15   11   17 1   
    16   11   18 1   
    17   12   13 1   
    18   12   14 1   
    19   19   20 1   
    20   19   28 1   
    21   20   21 1   
    22   20   23 1   
    23   20   29 1   
    24   21   22 2   
    25   21   41 1   
    26   23   24 1   
    27   23   30 1   
    28   23   31 1   
    29   24   25 1   
    30   24   32 1   
    31   24   33 1   
    32   25   26 1   
    33   25   34 1   
    34   25   35 1   
    35   26   27 1   
    36   26   36 1   
    37   26   37 1   
    38   27   38 1   
    39   27   39 1   
    40   27   40 1   
    41   41   42 1   
    42   41   49 1   
    43   42   43 1   
    44   42   45 1   
    45   42   50 1   
    46   43   44 2   
    47   43   53 1   
    48   45   46 1   
    49   45   51 1   
    50   45   52 1   
    51   46   47 1   
    52   46   48 1   
    53   53   54 1   
    54   53   57 1   
    55   54   55 1   
    56   54   58 1   
    57   54   59 1   
    58   55   56 2   
    59   55   60 1   
    60   60   61 1   
    61   60   68 1   
    62   61   62 1   
    63   61   64 1   
    64   61   69 1   
    65   62   63 2   
    66   62   74 1   
    67   64   65 1   
    68   64   70 1   
    69   64   71 1   
    70   65   66 1   
    71   65   67 2   
    72   66   72 1   
    73   66   73 1   
    74   74   75 1   
    75   74   78 1   
    76   75   76 1   
    77   75   79 1   
    78   75   80 1   
    79   76   77 2   
    80   76   81 1   
    81   81   82 1   
    82   81   93 1   
    83   82   83 1   
    84   82   85 1   
    85   82   94 1   
    86   83   84 2   
    87   83  102 1   
    88   85   86 1   
    89   85   95 1   
    90   85   96 1   
    91   86   87 ar  
    92   86   88 ar  
    93   87   89 ar  
    94   87   97 1   
    95   88   90 ar  
    96   88   98 1   
    97   89   91 ar  
    98   89   99 1   
    99   90   91 ar  
   100   90  100 1   
   101   91   92 1   
   102   92  101 1   
   103  102  103 1   
   104  102  110 1   
   105  103  104 1   
   106  103  106 1   
   107  103  111 1   
   108  104  105 2   
   109  104  121 1   
   110  106  107 1   
   111  106  108 1   
   112  106  112 1   
   113  107  109 1   
   114  107  113 1   
   115  107  114 1   
   116  108  115 1   
   117  108  116 1   
   118  108  117 1   
   119  109  118 1   
   120  109  119 1   
   121  109  120 1   
   122  121  122 1   
   123  121  127 1   
   124  122  123 1   
   125  122  125 1   
   126  122  128 1   
   127  123  124 2   
   128  123  132 1   
   129  125  126 1   
   130  125  129 1   
   131  125  130 1   
   132  126  131 1   
   133  132  133 1   
   134  132  137 1   
   135  133  134 1   
   136  133  136 1   
   137  133  138 1   
   138  134  135 2   
   139  134  142 1   
   140  136  139 1   
   141  136  140 1   
   142  136  141 1   
   143  142  143 1   
   144  142  147 1   
   145  143  144 1   
   146  143  146 1   
   147  143  148 1   
   148  144  145 2   
   149  144  152 1   
   150  146  149 1   
   151  146  150 1   
   152  146  151 1   
   153  152  153 1   
   154  152  161 1   
   155  153  154 1   
   156  153  156 1   
   157  153  162 1   
   158  154  155 2   
   159  154  167 1   
   160  156  157 1   
   161  156  163 1   
   162  156  164 1   
   163  157  158 1   
   164  157  165 1   
   165  157  166 1   
   166  158  159 1   
   167  158  160 1   
   168  167  168 1   
   169  167  172 1   
   170  168  169 1   
   171  168  170 1   
   172  168  171 1   
   173  174  175 1   
   174  174  176 1   
   175  177  178 1   
   176  177  179 1   
   177  180  181 1   
   178  180  182 1   
   179  183  184 1   
   180  183  185 1   
@<TRIPOS>SUBSTRUCTURE
     1 MOL         1 TEMP              0 ****  ****    0 ROOT
