@<TRIPOS>MOLECULE
MOL
  201   193     1     0     0
SMALL
resp


@<TRIPOS>ATOM
      1 C1        -10.7250   -5.2400   -3.6850 c3        1 MOL     -0.398310
      2 C2        -10.4540   -4.5430   -2.2840 c         1 MOL      0.630261
      3 O1        -11.3640   -3.9050   -1.6990 o         1 MOL     -0.583905
      4 H1        -11.7430   -5.0200   -4.0080 hc        1 MOL      0.102979
      5 H2        -10.0200   -4.8590   -4.4230 hc        1 MOL      0.102979
      6 H3        -10.6000   -6.3180   -3.5840 hc        1 MOL      0.102979
      7 N1         -9.2820   -4.7320   -1.7180 n         1 MOL     -0.438331
      8 C3         -8.8340   -4.0430   -0.4970 c3        1 MOL      0.154233
      9 C4         -8.0960   -2.7360   -0.8130 c         1 MOL      0.534304
     10 O2         -7.6350   -2.5490   -1.9590 o         1 MOL     -0.566334
     11 C5         -8.0500   -4.9910    0.3590 c3        1 MOL     -0.123628
     12 C6         -8.6730   -6.3420    0.6620 c         1 MOL      0.640703
     13 O3         -9.8900   -6.3410    0.9710 o         1 MOL     -0.617861
     14 O4         -8.0210   -7.3800    0.4970 o         1 MOL     -0.617861
     15 H4         -8.6360   -5.3670   -2.1690 hn        1 MOL      0.292399
     16 H5         -9.7170   -3.7670    0.0780 h1        1 MOL      0.045761
     17 H6         -7.7040   -4.5440    1.2900 hc        1 MOL      0.012194
     18 H7         -7.1230   -5.2030   -0.1920 hc        1 MOL      0.012194
     19 N2         -7.9670   -1.7760    0.1490 n         1 MOL     -0.637297
     20 C7         -7.2500   -0.4870   -0.0900 c3        1 MOL      0.344966
     21 C8         -5.8830   -0.4990    0.5790 c         1 MOL      0.480164
     22 O5         -5.7060   -0.7470    1.7480 o         1 MOL     -0.560384
     23 C9         -8.1620    0.6850    0.4780 c3        1 MOL     -0.149377
     24 C10        -7.5820    2.1550    0.2750 c3        1 MOL     -0.037614
     25 C11        -7.1150    2.3750   -1.1780 c3        1 MOL     -0.170292
     26 C12        -7.0290    3.8730   -1.5940 c3        1 MOL      0.217333
     27 N3         -8.1260    4.2940   -2.4490 n4        1 MOL     -0.395544
     28 H8         -8.4580   -1.9060    1.0190 hn        1 MOL      0.323998
     29 H9         -7.1620   -0.3960   -1.1740 h1        1 MOL      0.023351
     30 H10        -8.3760    0.4960    1.5290 hc        1 MOL      0.055318
     31 H11        -9.1370    0.6390   -0.0190 hc        1 MOL      0.055318
     32 H12        -6.7590    2.3350    0.9740 hc        1 MOL      0.042857
     33 H13        -8.3200    2.9260    0.5140 hc        1 MOL      0.042857
     34 H14        -7.7320    1.8130   -1.8780 hc        1 MOL      0.050308
     35 H15        -6.0890    2.0060   -1.1630 hc        1 MOL      0.050308
     36 H16        -6.1030    4.0830   -2.1390 hx        1 MOL      0.047870
     37 H17        -6.9410    4.5830   -0.7620 hx        1 MOL      0.047870
     38 H18        -8.0780    5.2590   -2.7380 hn        1 MOL      0.308403
     39 H19        -8.1850    3.7930   -3.3260 hn        1 MOL      0.308403
     40 H20        -9.0590    4.1730   -2.0880 hn        1 MOL      0.308403
     41 N4         -4.8160   -0.1890   -0.1570 n         1 MOL     -0.288044
     42 C13        -3.4270    0.0380    0.2170 c3        1 MOL      0.079198
     43 C14        -2.8290    1.2290   -0.6330 c         1 MOL      0.543559
     44 O6         -3.1220    1.3130   -1.8380 o         1 MOL     -0.584907
     45 C15        -2.6590   -1.2900    0.1410 c3        1 MOL      0.073776
     46 C16        -1.5880   -1.4670    1.2030 c         1 MOL      0.575947
     47 O7         -0.6260   -2.2090    0.9880 o         1 MOL     -0.708357
     48 O8         -1.6180   -0.8400    2.3100 o         1 MOL     -0.708357
     49 H21        -5.0060   -0.2460   -1.1420 hn        1 MOL      0.172264
     50 H22        -3.4680    0.3810    1.2530 h1        1 MOL      0.060380
     51 H23        -2.2760   -1.3340   -0.8780 hc        1 MOL      0.011542
     52 H24        -3.3710   -2.1160    0.1830 hc        1 MOL      0.011542
     53 N5         -2.0710    2.1450   -0.0700 n         1 MOL     -0.474519
     54 C17        -1.4570    2.1990    1.2600 c3        1 MOL     -0.019130
     55 C18        -1.5770    3.5250    1.9640 c         1 MOL      0.530132
     56 O9         -2.6010    4.2100    1.9920 o         1 MOL     -0.556125
     57 H25        -1.7970    2.8970   -0.6930 hn        1 MOL      0.312885
     58 H26        -0.4210    1.8960    1.3240 h1        1 MOL      0.070547
     59 H27        -1.9930    1.5570    1.9570 h1        1 MOL      0.070547
     60 N6         -0.4560    3.9310    2.5520 n         1 MOL     -0.371195
     61 C19        -0.2820    5.2360    3.1110 c3        1 MOL      0.240087
     62 C20         0.7990    6.0870    2.4220 c         1 MOL      0.240647
     63 O10         1.9600    5.6410    2.3280 o         1 MOL     -0.416215
     64 C21         0.2430    5.1230    4.5730 c3        1 MOL     -0.405419
     65 C22         0.4500    6.3920    5.4060 c         1 MOL      0.832670
     66 O11         1.0670    6.3600    6.4650 o         1 MOL     -0.724297
     67 O12        -0.1380    7.4260    5.0300 o         1 MOL     -0.724297
     68 H28         0.3880    3.4510    2.2900 hn        1 MOL      0.180735
     69 H29        -1.2270    5.7710    3.1040 h1        1 MOL      0.033875
     70 H30         1.2120    4.6420    4.5620 hc        1 MOL      0.079402
     71 H31        -0.5950    4.5900    5.0320 hc        1 MOL      0.079402
     72 N7          0.5820    7.2980    2.0190 n         1 MOL     -0.109089
     73 C23         1.4250    8.2080    1.2620 c3        1 MOL     -0.091019
     74 C24         1.6360    7.5590   -0.1120 c         1 MOL      0.381137
     75 O13         2.7710    7.6540   -0.6550 o         1 MOL     -0.507092
     76 H32        -0.2400    7.7470    2.3860 hn        1 MOL      0.193979
     77 H33         2.3140    8.3230    1.8990 h1        1 MOL      0.111726
     78 H34         0.9710    9.1700    1.0670 h1        1 MOL      0.111726
     79 N8          0.5860    7.0060   -0.7820 n         1 MOL     -0.214291
     80 C25         0.7070    6.3330   -2.1080 c3        1 MOL     -0.030332
     81 C26         0.1830    4.8610   -2.0530 c         1 MOL      0.507704
     82 O14        -0.7140    4.5820   -1.2580 o         1 MOL     -0.462055
     83 C27        -0.0090    7.1020   -3.2010 c3        1 MOL      0.362431
     84 C28        -1.4780    7.4000   -2.9670 c3        1 MOL     -0.444014
     85 O15         0.5770    8.3560   -3.5300 oh        1 MOL     -0.603778
     86 H35        -0.2520    6.8690   -0.2440 hn        1 MOL      0.159647
     87 H36         1.7490    6.2170   -2.4080 h1        1 MOL      0.031106
     88 H37         0.0710    6.5200   -4.1150 h1        1 MOL     -0.029439
     89 H38         1.5220    8.2720   -3.6670 ho        1 MOL      0.394046
     90 H39        -1.7090    7.8840   -2.0140 hc        1 MOL      0.126489
     91 H40        -1.6850    8.0600   -3.8070 hc        1 MOL      0.126489
     92 H41        -2.1060    6.5140   -3.0670 hc        1 MOL      0.126489
     93 N9          0.7090    3.9710   -2.9260 n         1 MOL     -0.413199
     94 C29         0.2580    2.5470   -2.7670 c3        1 MOL     -0.093226
     95 C30         1.3190    1.9220   -1.7690 c         1 MOL      0.673527
     96 O16         0.9750    0.9470   -1.0540 o         1 MOL     -0.503177
     97 C31         0.3730    1.8360   -4.1300 c3        1 MOL     -0.012649
     98 C32        -0.3680    2.5970   -5.2560 c3        1 MOL      0.249400
     99 C33        -0.2910    0.4550   -3.9880 c3        1 MOL     -0.529581
    100 C34        -1.7900    3.1030   -4.9980 c3        1 MOL     -0.279477
    101 H42         1.3390    4.2360   -3.6790 hn        1 MOL      0.310555
    102 H43        -0.7620    2.5420   -2.3710 h1        1 MOL      0.113158
    103 H44         1.4100    1.7780   -4.4470 hc        1 MOL      0.039220
    104 H45        -0.2780    2.0600   -6.1980 hc        1 MOL     -0.043773
    105 H46         0.3040    3.4230   -5.4650 hc        1 MOL     -0.043773
    106 H47         0.3260   -0.2350   -3.4060 hc        1 MOL      0.150543
    107 H48        -1.3230    0.4950   -3.6630 hc        1 MOL      0.150543
    108 H49        -0.3940   -0.0130   -4.9750 hc        1 MOL      0.150543
    109 H50        -1.9880    3.8890   -5.7230 hc        1 MOL      0.067341
    110 H51        -2.5280    2.3420   -5.2430 hc        1 MOL      0.067341
    111 H52        -1.9330    3.5630   -4.0200 hc        1 MOL      0.067341
    112 N10         2.5440    2.5120   -1.7670 n         1 MOL     -0.450657
    113 C35         3.6340    2.1330   -0.8600 c3        1 MOL      0.022159
    114 C36         4.9690    1.8750   -1.5460 c         1 MOL      0.595296
    115 O17         5.3140    2.5980   -2.5020 o         1 MOL     -0.506150
    116 C37         3.8640    3.2440    0.2230 c3        1 MOL      0.225740
    117 C38         4.2160    4.5780   -0.3990 c3        1 MOL     -0.352591
    118 O18         2.6990    3.5130    0.9460 oh        1 MOL     -0.562647
    119 H53         2.7560    3.2210   -2.4600 hn        1 MOL      0.247689
    120 H54         3.3320    1.1790   -0.4180 h1        1 MOL     -0.045351
    121 H55         4.6230    2.9970    0.9690 h1        1 MOL      0.012264
    122 H56         2.7420    4.3250    1.4540 ho        1 MOL      0.352622
    123 H57         5.0170    4.4730   -1.1310 hc        1 MOL      0.106820
    124 H58         3.3380    5.0680   -0.8300 hc        1 MOL      0.106820
    125 H59         4.6170    5.3030    0.3110 hc        1 MOL      0.106820
    126 N11         5.7290    0.8520   -1.0810 n         1 MOL     -0.548709
    127 C39         6.9460    0.3310   -1.7470 c3        1 MOL      0.038689
    128 C40         6.8990   -1.1180   -2.0240 c         1 MOL      0.687286
    129 O19         7.0330   -1.5050   -3.1710 o         1 MOL     -0.548298
    130 C41         8.1730    0.7950   -0.8300 c3        1 MOL      0.184136
    131 C42         9.4910    0.5630   -1.5490 c3        1 MOL     -0.260848
    132 O20         8.2740    0.1890    0.4260 oh        1 MOL     -0.628510
    133 H60         5.3450    0.3030   -0.3270 hn        1 MOL      0.298965
    134 H61         7.0530    0.9140   -2.6640 h1        1 MOL      0.105104
    135 H62         8.0670    1.8490   -0.5900 h1        1 MOL      0.057638
    136 H63         8.9750    0.7130    0.8200 ho        1 MOL      0.424959
    137 H64        10.3850    0.9680   -1.0740 hc        1 MOL      0.070107
    138 H65         9.6980   -0.5060   -1.4750 hc        1 MOL      0.070107
    139 H66         9.4760    0.8530   -2.6020 hc        1 MOL      0.070107
    140 N12         6.4780   -1.9540   -1.0310 n         1 MOL     -0.567724
    141 C43         6.5650   -3.3680   -1.0020 c3        1 MOL     -0.044335
    142 C44         5.6110   -3.9350   -0.0110 c         1 MOL      0.605328
    143 O21         5.6260   -3.6140    1.1290 o         1 MOL     -0.537686
    144 C45         7.9890   -3.8680   -0.8620 c3        1 MOL     -0.094661
    145 C46         8.0910   -5.3460   -1.1920 c3        1 MOL      0.019783
    146 C47         9.3980   -6.0600   -0.7760 c3        1 MOL      0.013611
    147 C48         9.5010   -7.3090   -1.5490 c3        1 MOL      0.086440
    148 N13        10.7170   -8.0610   -1.2560 n4        1 MOL     -0.241296
    149 H67         6.1800   -1.5050   -0.1810 hn        1 MOL      0.327231
    150 H68         6.1420   -3.6490   -1.9660 h1        1 MOL      0.119523
    151 H69         8.4800   -3.7280    0.0950 hc        1 MOL      0.069479
    152 H70         8.6010   -3.3930   -1.6330 hc        1 MOL      0.069479
    153 H71         7.9150   -5.4350   -2.2640 hc        1 MOL      0.013787
    154 H72         7.2980   -5.9610   -0.7710 hc        1 MOL      0.013787
    155 H73         9.5480   -6.1080    0.3020 hc        1 MOL      0.014741
    156 H74        10.1730   -5.3890   -1.1580 hc        1 MOL      0.014741
    157 H75         9.3370   -7.1720   -2.6180 hx        1 MOL      0.055818
    158 H76         8.6630   -7.9620   -1.2780 hx        1 MOL      0.055818
    159 H77        11.6040   -7.6160   -1.4430 hn        1 MOL      0.216776
    160 H78        10.6740   -8.2940   -0.2770 hn        1 MOL      0.216776
    161 H79        10.7690   -8.8760   -1.8550 hn        1 MOL      0.216776
    162 N14         4.6770   -4.7380   -0.4930 n         1 MOL     -0.593732
    163 C49         3.4600   -5.0890    0.3120 c3        1 MOL      0.383669
    164 C50         2.3880   -3.9850    0.5590 c         1 MOL      0.394468
    165 O22         2.0870   -3.6060    1.6460 o         1 MOL     -0.683762
    166 C51         2.9310   -6.4410   -0.1540 c3        1 MOL      0.043077
    167 C52         1.8630   -7.0440    0.8140 c3        1 MOL     -0.189740
    168 C53         1.1930   -8.3200    0.3200 c         1 MOL      0.708822
    169 O23         1.3050   -8.6620   -0.8680 o         1 MOL     -0.678097
    170 O24         0.4160   -8.8950    1.1310 o         1 MOL     -0.678097
    171 H80         4.7820   -5.0720   -1.4370 hn        1 MOL      0.254968
    172 H81         3.8680   -5.3720    1.2840 h1        1 MOL      0.007361
    173 H82         3.8110   -7.0680   -0.0650 hc        1 MOL     -0.022075
    174 H83         2.6110   -6.3390   -1.1880 hc        1 MOL     -0.022075
    175 H84         1.0600   -6.3480    1.0670 hc        1 MOL      0.034648
    176 H85         2.4170   -7.3130    1.7090 hc        1 MOL      0.034648
    177 N15         1.8570   -3.3000   -0.4670 n         1 MOL     -0.222192
    178 C54         1.6210   -3.6680   -1.7860 c3        1 MOL     -0.175884
    179 H86         0.5630   -3.5390   -2.0140 h1        1 MOL      0.088033
    180 H87         2.2140   -3.0410   -2.4510 h1        1 MOL      0.088033
    181 H88         1.8970   -4.7130   -1.9270 h1        1 MOL      0.088033
    182 H89         1.4010   -2.4730   -0.1190 hn        1 MOL      0.254135
    183 Ca1         0.5820   -2.0660    3.2280 Ca        1 MOL      1.826192
    184 O25         0.9210    0.3610    4.3620 oh        1 MOL     -0.841485
    185 H90         0.6590    1.1450    4.8430 ho        1 MOL      0.421829
    186 H91         1.8220    0.5350    4.0960 ho        1 MOL      0.421829
    187 O26        -1.7230   -1.4410    5.3660 oh        1 MOL     -0.841485
    188 H92        -2.5130   -1.1840    4.9100 ho        1 MOL      0.421829
    189 H93        -2.0110   -1.6330    6.2620 ho        1 MOL      0.421829
    190 O27         0.9310   -3.6920    5.3110 oh        1 MOL     -0.841485
    191 H94         0.6780   -3.6420    6.2410 ho        1 MOL      0.421829
    192 H95         1.4370   -4.5110    5.2560 ho        1 MOL      0.421829
    193 O28         3.0500   -1.4780    3.9120 oh        1 MOL     -0.841485
    194 H96         3.6900   -2.1940    3.8960 ho        1 MOL      0.421829
    195 H97         3.4450   -0.8270    4.4990 ho        1 MOL      0.421829
    196 O29        -1.7820   -3.9340    3.2760 oh        1 MOL     -0.841485
    197 H98        -2.1050   -4.8270    3.1700 ho        1 MOL      0.421829
    198 H99        -2.5050   -3.3870    2.9780 ho        1 MOL      0.421829
    199 O30         1.7460   -0.4620    1.2370 oh        1 MOL     -0.841485
    200 H100        2.6320   -0.1310    1.0980 ho        1 MOL      0.421829
    201 H101        1.2530   -0.1360    0.4750 ho        1 MOL      0.421829
@<TRIPOS>BOND
     1    1    2 1   
     2    1    4 1   
     3    1    5 1   
     4    1    6 1   
     5    2    3 2   
     6    2    7 1   
     7    7    8 1   
     8    7   15 1   
     9    8    9 1   
    10    8   11 1   
    11    8   16 1   
    12    9   10 2   
    13    9   19 1   
    14   11   12 1   
    15   11   17 1   
    16   11   18 1   
    17   12   13 1   
    18   12   14 1   
    19   19   20 1   
    20   19   28 1   
    21   20   21 1   
    22   20   23 1   
    23   20   29 1   
    24   21   22 2   
    25   21   41 1   
    26   23   24 1   
    27   23   30 1   
    28   23   31 1   
    29   24   25 1   
    30   24   32 1   
    31   24   33 1   
    32   25   26 1   
    33   25   34 1   
    34   25   35 1   
    35   26   27 1   
    36   26   36 1   
    37   26   37 1   
    38   27   38 1   
    39   27   39 1   
    40   27   40 1   
    41   41   42 1   
    42   41   49 1   
    43   42   43 1   
    44   42   45 1   
    45   42   50 1   
    46   43   44 2   
    47   43   53 1   
    48   45   46 1   
    49   45   51 1   
    50   45   52 1   
    51   46   47 1   
    52   46   48 1   
    53   53   54 1   
    54   53   57 1   
    55   54   55 1   
    56   54   58 1   
    57   54   59 1   
    58   55   56 2   
    59   55   60 1   
    60   60   61 1   
    61   60   68 1   
    62   61   62 1   
    63   61   64 1   
    64   61   69 1   
    65   62   63 2   
    66   62   72 1   
    67   64   65 1   
    68   64   70 1   
    69   64   71 1   
    70   65   66 1   
    71   65   67 1   
    72   72   73 1   
    73   72   76 1   
    74   73   74 1   
    75   73   77 1   
    76   73   78 1   
    77   74   75 2   
    78   74   79 1   
    79   79   80 1   
    80   79   86 1   
    81   80   81 1   
    82   80   83 1   
    83   80   87 1   
    84   81   82 2   
    85   81   93 1   
    86   83   84 1   
    87   83   85 1   
    88   83   88 1   
    89   84   90 1   
    90   84   91 1   
    91   84   92 1   
    92   85   89 1   
    93   93   94 1   
    94   93  101 1   
    95   94   95 1   
    96   94   97 1   
    97   94  102 1   
    98   95   96 2   
    99   95  112 1   
   100   97   98 1   
   101   97   99 1   
   102   97  103 1   
   103   98  100 1   
   104   98  104 1   
   105   98  105 1   
   106   99  106 1   
   107   99  107 1   
   108   99  108 1   
   109  100  109 1   
   110  100  110 1   
   111  100  111 1   
   112  112  113 1   
   113  112  119 1   
   114  113  114 1   
   115  113  116 1   
   116  113  120 1   
   117  114  115 2   
   118  114  126 1   
   119  116  117 1   
   120  116  118 1   
   121  116  121 1   
   122  117  123 1   
   123  117  124 1   
   124  117  125 1   
   125  118  122 1   
   126  126  127 1   
   127  126  133 1   
   128  127  128 1   
   129  127  130 1   
   130  127  134 1   
   131  128  129 2   
   132  128  140 1   
   133  130  131 1   
   134  130  132 1   
   135  130  135 1   
   136  131  137 1   
   137  131  138 1   
   138  131  139 1   
   139  132  136 1   
   140  140  141 1   
   141  140  149 1   
   142  141  142 1   
   143  141  144 1   
   144  141  150 1   
   145  142  143 2   
   146  142  162 1   
   147  144  145 1   
   148  144  151 1   
   149  144  152 1   
   150  145  146 1   
   151  145  153 1   
   152  145  154 1   
   153  146  147 1   
   154  146  155 1   
   155  146  156 1   
   156  147  148 1   
   157  147  157 1   
   158  147  158 1   
   159  148  159 1   
   160  148  160 1   
   161  148  161 1   
   162  162  163 1   
   163  162  171 1   
   164  163  164 1   
   165  163  166 1   
   166  163  172 1   
   167  164  165 2   
   168  164  177 1   
   169  166  167 1   
   170  166  173 1   
   171  166  174 1   
   172  167  168 1   
   173  167  175 1   
   174  167  176 1   
   175  168  169 1   
   176  168  170 1   
   177  177  178 1   
   178  177  182 1   
   179  178  179 1   
   180  178  180 1   
   181  178  181 1   
   182  184  185 1   
   183  184  186 1   
   184  187  188 1   
   185  187  189 1   
   186  190  191 1   
   187  190  192 1   
   188  193  194 1   
   189  193  195 1   
   190  196  197 1   
   191  196  198 1   
   192  199  200 1   
   193  199  201 1   
@<TRIPOS>SUBSTRUCTURE
     1 MOL         1 TEMP              0 ****  ****    0 ROOT
