@<TRIPOS>MOLECULE
MOL
  175   173     1     0     0
SMALL
resp


@<TRIPOS>ATOM
      1 C1         -7.1130    7.7490    2.0090 c3        1 MOL     -0.478133
      2 C2         -7.6540    6.9410    0.8570 c         1 MOL      0.813519
      3 O1         -7.5050    7.3080   -0.2790 o         1 MOL     -0.608869
      4 H1         -7.7670    7.6320    2.8730 hc        1 MOL      0.113690
      5 H2         -6.1120    7.3980    2.2610 hc        1 MOL      0.113690
      6 H3         -7.0700    8.8000    1.7270 hc        1 MOL      0.113690
      7 N1         -8.4030    5.8630    1.0990 n         1 MOL     -0.704703
      8 C3         -8.9340    4.9440    0.0860 c3        1 MOL      0.456388
      9 C4         -7.9180    3.7990   -0.3310 c         1 MOL      0.384274
     10 O2         -8.1850    2.6860   -0.8130 o         1 MOL     -0.477825
     11 C5        -10.2590    4.3850    0.6050 c3        1 MOL     -0.423464
     12 C6        -11.0940    3.7940   -0.5760 c         1 MOL      0.720871
     13 O3        -12.0670    3.0770   -0.2560 o         1 MOL     -0.721358
     14 O4        -10.8320    4.1220   -1.7750 o         1 MOL     -0.721358
     15 H4         -8.5320    5.5890    2.0670 hn        1 MOL      0.292407
     16 H5         -9.0250    5.4780   -0.8700 h1        1 MOL      0.018359
     17 H6        -10.8150    5.2430    0.9860 hc        1 MOL      0.076814
     18 H7         -9.9960    3.5960    1.3170 hc        1 MOL      0.076814
     19 N2         -6.6310    4.2110   -0.2660 n         1 MOL     -0.445325
     20 C7         -5.4360    3.5560   -0.8280 c3        1 MOL      0.340244
     21 C8         -4.9060    2.5920    0.1740 c         1 MOL      0.519125
     22 O5         -4.2870    3.0520    1.1340 o         1 MOL     -0.574824
     23 C9         -4.3950    4.6460   -1.0890 c3        1 MOL     -0.419411
     24 H8         -6.5230    4.9470    0.4160 hn        1 MOL      0.214713
     25 H9         -5.7340    2.9430   -1.6740 h1        1 MOL      0.019435
     26 H10        -3.4970    4.0850   -1.3510 hc        1 MOL      0.118353
     27 H11        -4.6440    5.2700   -1.9440 hc        1 MOL      0.118353
     28 H12        -4.3100    5.3570   -0.2750 hc        1 MOL      0.118353
     29 N3         -4.8240    1.2590    0.0700 n         1 MOL     -0.533781
     30 C10        -5.3460    0.4540   -1.0570 c3        1 MOL      0.186988
     31 C11        -5.5740   -0.9630   -0.6120 c         1 MOL      0.560008
     32 O6         -4.9120   -1.4380    0.3260 o         1 MOL     -0.554084
     33 C12        -4.3730    0.4710   -2.2350 c3        1 MOL     -0.155952
     34 C13        -3.0280   -0.1670   -1.8910 c         1 MOL      0.681125
     35 O7         -2.2650    0.4450   -1.1540 o         1 MOL     -0.703584
     36 O8         -2.7680   -1.3630   -2.1950 o         1 MOL     -0.703584
     37 H13        -4.2770    0.7330    0.7350 hn        1 MOL      0.338319
     38 H14        -6.3280    0.8310   -1.3320 h1        1 MOL     -0.004277
     39 H15        -4.1560    1.5070   -2.4650 hc        1 MOL      0.015705
     40 H16        -4.7900   -0.0930   -3.0610 hc        1 MOL      0.015705
     41 N4         -6.5350   -1.6920   -1.1800 n         1 MOL     -0.518737
     42 C14        -6.9030   -3.0070   -0.5780 c3        1 MOL      0.153191
     43 C15        -6.7230   -4.1400   -1.6440 c         1 MOL      0.440285
     44 O9         -7.7270   -4.5400   -2.2010 o         1 MOL     -0.560959
     45 H17        -6.9240   -1.4340   -2.0810 hn        1 MOL      0.350350
     46 H18        -7.9240   -2.9970   -0.2000 h1        1 MOL      0.039084
     47 H19        -6.3250   -3.3060    0.2990 h1        1 MOL      0.039084
     48 N5         -5.5650   -4.7300   -1.8510 n         1 MOL     -0.320503
     49 C16        -4.2420   -4.5000   -1.2940 c3        1 MOL      0.022135
     50 C17        -4.1420   -5.2100    0.0420 c         1 MOL      0.402694
     51 O10        -4.1780   -6.4330    0.2060 o         1 MOL     -0.543501
     52 C18        -3.1290   -4.8980   -2.3030 c3        1 MOL     -0.208705
     53 C19        -1.7760   -4.3060   -1.8990 c         1 MOL      0.693987
     54 N6         -0.8030   -4.3810   -2.7870 n         1 MOL     -0.919177
     55 O11        -1.5130   -3.7760   -0.8710 o         1 MOL     -0.618079
     56 H20        -5.6150   -5.5300   -2.4640 hn        1 MOL      0.258787
     57 H21        -4.0650   -3.4240   -1.1840 h1        1 MOL      0.005484
     58 H22        -3.3640   -4.6730   -3.3380 hc        1 MOL      0.091694
     59 H23        -2.9880   -5.9780   -2.2220 hc        1 MOL      0.091694
     60 H24        -0.9840   -4.7300   -3.7190 hn        1 MOL      0.391849
     61 H25         0.1040   -4.0760   -2.4460 hn        1 MOL      0.391849
     62 N7         -3.7860   -4.3850    1.0180 n         1 MOL     -0.060362
     63 C20        -3.6190   -4.7450    2.4080 c3        1 MOL     -0.179352
     64 C21        -2.1570   -4.9520    2.9000 c         1 MOL      0.625375
     65 O12        -1.9620   -5.4810    3.9490 o         1 MOL     -0.592973
     66 H26        -3.6150   -3.4150    0.8070 hn        1 MOL      0.211148
     67 H27        -4.1920   -5.5800    2.8290 h1        1 MOL      0.063046
     68 H28        -3.9420   -3.8380    2.9140 h1        1 MOL      0.063046
     69 N8         -1.1420   -4.6450    2.1330 n         1 MOL     -0.273954
     70 C22         0.2520   -4.7460    2.5720 c3        1 MOL     -0.146173
     71 C23         1.0490   -3.5250    2.0120 c         1 MOL      0.477520
     72 O13         0.6250   -2.7850    1.1510 o         1 MOL     -0.536746
     73 C24         0.9370   -5.9330    1.9450 c3        1 MOL      0.310168
     74 C25         0.2080   -7.2520    2.2860 c3        1 MOL     -0.555533
     75 O14         0.6820   -5.8890    0.4470 oh        1 MOL     -0.583324
     76 H29        -1.3430   -4.4320    1.1640 hn        1 MOL      0.285290
     77 H30         0.3190   -4.7480    3.6630 h1        1 MOL      0.107635
     78 H31         2.0070   -5.8960    2.1560 h1        1 MOL      0.027713
     79 H32         1.2320   -5.2440   -0.0010 ho        1 MOL      0.400157
     80 H33         0.8660   -8.0700    1.9680 hc        1 MOL      0.157227
     81 H34         0.0380   -7.3220    3.3550 hc        1 MOL      0.157227
     82 H35        -0.7880   -7.3000    1.8570 hc        1 MOL      0.157227
     83 N9          2.2650   -3.2710    2.5910 n         1 MOL     -0.337097
     84 C26         3.2040   -2.2590    2.1550 c3        1 MOL      0.084556
     85 C27         4.0290   -2.6590    0.9010 c         1 MOL      0.248125
     86 O15         4.7780   -3.6340    0.9420 o         1 MOL     -0.544254
     87 C28         4.1310   -1.8640    3.3780 c3        1 MOL      0.023600
     88 C29         5.1320   -0.7580    2.8890 c3        1 MOL      0.222780
     89 C30         3.2320   -1.4780    4.5410 c3        1 MOL     -0.263856
     90 C31         6.0260   -0.2030    4.0570 c3        1 MOL     -0.226009
     91 H36         2.5240   -3.8160    3.3930 hn        1 MOL      0.238457
     92 H37         2.5580   -1.4220    1.8800 h1        1 MOL      0.024428
     93 H38         4.7250   -2.7300    3.6760 hc        1 MOL      0.018344
     94 H39         4.5440    0.1090    2.5660 hc        1 MOL     -0.039214
     95 H40         5.7610   -1.1580    2.0940 hc        1 MOL     -0.039214
     96 H41         3.7930   -1.0440    5.3660 hc        1 MOL      0.067569
     97 H42         2.4790   -0.7350    4.2710 hc        1 MOL      0.067569
     98 H43         2.6070   -2.2320    5.0180 hc        1 MOL      0.067569
     99 H44         6.6480    0.6170    3.6760 hc        1 MOL      0.040720
    100 H45         5.4310    0.2130    4.8700 hc        1 MOL      0.040720
    101 H46         6.7870   -0.8640    4.4810 hc        1 MOL      0.040720
    102 N10         3.7960   -2.0030   -0.2040 n         1 MOL      0.014174
    103 C32         4.4450   -2.2910   -1.5060 c3        1 MOL      0.218541
    104 C33         5.4930   -1.2990   -1.9220 c         1 MOL      0.462611
    105 O16         6.1070   -1.3280   -3.0180 o         1 MOL     -0.550169
    106 C34         3.5170   -2.5190   -2.6670 c3        1 MOL     -0.275097
    107 C35         2.3170   -3.3440   -2.2110 c         1 MOL      0.721122
    108 O17         2.4600   -4.5770   -2.1200 o         1 MOL     -0.646424
    109 O18         1.2240   -2.6790   -2.0110 o         1 MOL     -0.646424
    110 H47         3.0470   -1.3220   -0.2250 hn        1 MOL      0.080228
    111 H48         4.9600   -3.2420   -1.4100 h1        1 MOL      0.044306
    112 H49         4.0340   -3.0400   -3.4730 hc        1 MOL      0.043805
    113 H50         3.1580   -1.5420   -2.9850 hc        1 MOL      0.043805
    114 N11         5.8120   -0.3850   -0.9840 n         1 MOL     -0.506555
    115 C36         6.7890    0.5980   -1.1360 c3        1 MOL      0.421426
    116 C37         6.4680    1.9210   -0.4170 c         1 MOL      0.388022
    117 O19         6.2280    1.7900    0.8300 o         1 MOL     -0.498031
    118 C38         8.1940    0.1430   -0.6150 c3        1 MOL     -0.161605
    119 C39         9.2710    0.9090   -1.2740 ca        1 MOL      0.063883
    120 C40         9.9000    2.0650   -0.6800 ca        1 MOL     -0.201260
    121 C41         9.4270    0.6770   -2.6630 ca        1 MOL     -0.201260
    122 C42        10.5500    2.9730   -1.5330 ca        1 MOL     -0.037351
    123 C43        10.1360    1.5510   -3.4540 ca        1 MOL     -0.037351
    124 C44        10.7160    2.7360   -2.9250 ca        1 MOL     -0.225044
    125 H51         5.2950   -0.3880   -0.1110 hn        1 MOL      0.164926
    126 H52         6.8760    0.7160   -2.2180 h1        1 MOL      0.008097
    127 H53         8.2570   -0.9250   -0.8110 hc        1 MOL      0.076538
    128 H54         8.2310    0.2810    0.4670 hc        1 MOL      0.076538
    129 H55         9.7700    2.1910    0.3870 ha        1 MOL      0.136743
    130 H56         8.9120   -0.1720   -3.0810 ha        1 MOL      0.136743
    131 H57        10.9760    3.8670   -1.1050 ha        1 MOL      0.093990
    132 H58        10.2330    1.3190   -4.5090 ha        1 MOL      0.093990
    133 H59        11.3020    3.3390   -3.5930 ha        1 MOL      0.132503
    134 N12         6.4120    3.1290   -1.0850 n         1 MOL     -0.380347
    135 C45         6.4630    4.4260   -0.4480 c3        1 MOL      0.142397
    136 C46         5.2180    4.7220    0.4460 c         1 MOL      0.243148
    137 O20         5.1900    5.7420    1.2020 o         1 MOL     -0.526174
    138 C47         6.6270    5.4750   -1.5590 c3        1 MOL     -0.091784
    139 C48         7.3470    4.7070   -2.5900 c3        1 MOL     -0.073516
    140 C49         6.7040    3.3590   -2.4790 c3        1 MOL      0.089395
    141 H60         7.3090    4.5220    0.2290 h1        1 MOL      0.074136
    142 H61         5.6370    5.6870   -1.9700 hc        1 MOL      0.069140
    143 H62         7.1680    6.3680   -1.2460 hc        1 MOL      0.069140
    144 H63         6.9810    5.0800   -3.5560 hc        1 MOL      0.032263
    145 H64         8.4190    4.5680   -2.5050 hc        1 MOL      0.032263
    146 H65         5.7880    3.2840   -3.0710 h1        1 MOL      0.040369
    147 H66         7.2810    2.6170   -3.0220 h1        1 MOL      0.040369
    148 N13         4.2140    3.8450    0.4870 n         1 MOL     -0.058268
    149 C50         2.9670    4.1310    1.2540 c3        1 MOL     -0.335209
    150 C51         3.1140    4.2260    2.7490 c         1 MOL      0.600672
    151 O21         2.1590    4.4740    3.4110 o         1 MOL     -0.537986
    152 C52         1.9590    3.1040    0.8420 c3        1 MOL     -0.066799
    153 C53         2.2180    1.6540    1.4030 c3        1 MOL     -0.152424
    154 C54         1.2730    0.6450    0.6840 c         1 MOL      0.650830
    155 O22         1.7280   -0.0090   -0.2230 o         1 MOL     -0.656028
    156 O23         0.0570    0.6980    0.7540 o         1 MOL     -0.656028
    157 H67         4.1430    3.0150   -0.0690 hn        1 MOL      0.198975
    158 H68         2.5460    5.0800    0.9200 h1        1 MOL      0.167922
    159 H69         1.9910    2.9720   -0.2440 hc        1 MOL      0.095861
    160 H70         0.9450    3.3380    1.1700 hc        1 MOL      0.095861
    161 H71         2.0410    1.4480    2.4600 hc        1 MOL      0.036893
    162 H72         3.2500    1.3370    1.2480 hc        1 MOL      0.036893
    163 N14         4.2230    3.8380    3.3600 n         1 MOL     -0.197558
    164 C55         4.4730    4.1430    4.7640 c3        1 MOL     -0.213378
    165 H73         3.5360    4.0960    5.3190 h1        1 MOL      0.089715
    166 H74         5.1750    3.4180    5.1750 h1        1 MOL      0.089715
    167 H75         4.8950    5.1440    4.8500 h1        1 MOL      0.089715
    168 H76         4.9220    3.4260    2.7700 hn        1 MOL      0.222438
    169 Ca1        -0.5040   -1.3770   -0.7500 Ca        1 MOL      1.604217
    170 O24         0.2810   -0.0800   -3.0510 oh        1 MOL     -0.724691
    171 H77        -0.2460    0.2820   -3.7530 ho        1 MOL      0.354585
    172 H78         0.8390   -0.7320   -3.4760 ho        1 MOL      0.354585
    173 O25        -2.3690   -1.8000    1.0970 oh        1 MOL     -0.724691
    174 H79        -3.1500   -1.6170    0.5870 ho        1 MOL      0.354585
    175 H80        -2.4210   -1.2080    1.8440 ho        1 MOL      0.354585
@<TRIPOS>BOND
     1    1    2 1   
     2    1    4 1   
     3    1    5 1   
     4    1    6 1   
     5    2    3 2   
     6    2    7 1   
     7    7    8 1   
     8    7   15 1   
     9    8    9 1   
    10    8   11 1   
    11    8   16 1   
    12    9   10 2   
    13    9   19 1   
    14   11   12 1   
    15   11   17 1   
    16   11   18 1   
    17   12   13 1   
    18   12   14 1   
    19   19   20 1   
    20   19   24 1   
    21   20   21 1   
    22   20   23 1   
    23   20   25 1   
    24   21   22 2   
    25   21   29 1   
    26   23   26 1   
    27   23   27 1   
    28   23   28 1   
    29   29   30 1   
    30   29   37 1   
    31   30   31 1   
    32   30   33 1   
    33   30   38 1   
    34   31   32 2   
    35   31   41 1   
    36   33   34 1   
    37   33   39 1   
    38   33   40 1   
    39   34   35 1   
    40   34   36 1   
    41   41   42 1   
    42   41   45 1   
    43   42   43 1   
    44   42   46 1   
    45   42   47 1   
    46   43   44 2   
    47   43   48 1   
    48   48   49 1   
    49   48   56 1   
    50   49   50 1   
    51   49   52 1   
    52   49   57 1   
    53   50   51 2   
    54   50   62 1   
    55   52   53 1   
    56   52   58 1   
    57   52   59 1   
    58   53   54 1   
    59   53   55 2   
    60   54   60 1   
    61   54   61 1   
    62   62   63 1   
    63   62   66 1   
    64   63   64 1   
    65   63   67 1   
    66   63   68 1   
    67   64   65 2   
    68   64   69 1   
    69   69   70 1   
    70   69   76 1   
    71   70   71 1   
    72   70   73 1   
    73   70   77 1   
    74   71   72 2   
    75   71   83 1   
    76   73   74 1   
    77   73   75 1   
    78   73   78 1   
    79   74   80 1   
    80   74   81 1   
    81   74   82 1   
    82   75   79 1   
    83   83   84 1   
    84   83   91 1   
    85   84   85 1   
    86   84   87 1   
    87   84   92 1   
    88   85   86 2   
    89   85  102 1   
    90   87   88 1   
    91   87   89 1   
    92   87   93 1   
    93   88   90 1   
    94   88   94 1   
    95   88   95 1   
    96   89   96 1   
    97   89   97 1   
    98   89   98 1   
    99   90   99 1   
   100   90  100 1   
   101   90  101 1   
   102  102  103 1   
   103  102  110 1   
   104  103  104 1   
   105  103  106 1   
   106  103  111 1   
   107  104  105 2   
   108  104  114 1   
   109  106  107 1   
   110  106  112 1   
   111  106  113 1   
   112  107  108 1   
   113  107  109 1   
   114  114  115 1   
   115  114  125 1   
   116  115  116 1   
   117  115  118 1   
   118  115  126 1   
   119  116  117 2   
   120  116  134 1   
   121  118  119 1   
   122  118  127 1   
   123  118  128 1   
   124  119  120 ar  
   125  119  121 ar  
   126  120  122 ar  
   127  120  129 1   
   128  121  123 ar  
   129  121  130 1   
   130  122  124 ar  
   131  122  131 1   
   132  123  124 ar  
   133  123  132 1   
   134  124  133 1   
   135  134  135 1   
   136  134  140 1   
   137  135  136 1   
   138  135  138 1   
   139  135  141 1   
   140  136  137 2   
   141  136  148 1   
   142  138  139 1   
   143  138  142 1   
   144  138  143 1   
   145  139  140 1   
   146  139  144 1   
   147  139  145 1   
   148  140  146 1   
   149  140  147 1   
   150  148  149 1   
   151  148  157 1   
   152  149  150 1   
   153  149  152 1   
   154  149  158 1   
   155  150  151 2   
   156  150  163 1   
   157  152  153 1   
   158  152  159 1   
   159  152  160 1   
   160  153  154 1   
   161  153  161 1   
   162  153  162 1   
   163  154  155 1   
   164  154  156 1   
   165  163  164 1   
   166  163  168 1   
   167  164  165 1   
   168  164  166 1   
   169  164  167 1   
   170  170  171 1   
   171  170  172 1   
   172  173  174 1   
   173  173  175 1   
@<TRIPOS>SUBSTRUCTURE
     1 MOL         1 TEMP              0 ****  ****    0 ROOT
