@<TRIPOS>MOLECULE
MOL
  184   179     1     0     0
SMALL
resp


@<TRIPOS>ATOM
      1 C1          1.7320    5.9610   -3.2980 c3        1 MOL     -0.433419
      2 C2          2.5650    6.1910   -2.0640 c         1 MOL      0.712173
      3 O1          2.0650    6.4020   -0.9290 o         1 MOL     -0.604733
      4 H1          1.1310    6.8480   -3.5000 hc        1 MOL      0.105073
      5 H2          2.3870    5.7650   -4.1480 hc        1 MOL      0.105073
      6 H3          1.0760    5.1050   -3.1400 hc        1 MOL      0.105073
      7 N1          3.9400    6.1550   -2.2320 n         1 MOL     -0.581976
      8 C3          4.8670    6.4730   -1.1590 c3        1 MOL      0.287464
      9 C4          5.1380    5.3140   -0.1940 c         1 MOL      0.688473
     10 O2          5.0000    4.1620   -0.5910 o         1 MOL     -0.570395
     11 C5          6.1840    7.1100   -1.7370 c3        1 MOL     -0.403046
     12 C6          6.9590    6.3540   -2.8140 c         1 MOL      0.788375
     13 O3          6.4910    5.3560   -3.4070 o         1 MOL     -0.735905
     14 O4          8.0020    6.8880   -3.2800 o         1 MOL     -0.735905
     15 H4          4.3650    5.8610   -3.1020 hn        1 MOL      0.324183
     16 H5          4.3510    7.2730   -0.6370 h1        1 MOL     -0.019808
     17 H6          6.8330    7.1570   -0.8650 hc        1 MOL      0.056630
     18 H7          6.0360    8.1120   -2.1490 hc        1 MOL      0.056630
     19 N2          5.4050    5.6230    1.0570 n         1 MOL     -0.728957
     20 C7          5.6050    4.7300    2.0680 c3        1 MOL      0.538411
     21 C8          4.3370    3.9700    2.5500 c         1 MOL      0.299473
     22 O5          3.2260    4.5390    2.6670 o         1 MOL     -0.501842
     23 C9          6.2530    5.3550    3.3380 c3        1 MOL     -0.438111
     24 H8          5.5760    6.5690    1.3480 hn        1 MOL      0.324655
     25 H9          6.3100    3.9640    1.7130 h1        1 MOL     -0.033571
     26 H10         6.5100    4.6050    4.0820 hc        1 MOL      0.103765
     27 H11         7.1580    5.8790    3.0310 hc        1 MOL      0.103765
     28 H12         5.5060    6.0130    3.7830 hc        1 MOL      0.103765
     29 N3          4.4370    2.6570    2.9790 n         1 MOL     -0.243210
     30 C10         5.5400    1.7450    3.0590 c3        1 MOL      0.079399
     31 C11         5.4230    0.7120    1.9690 c         1 MOL      0.330022
     32 O6          4.3910    0.5330    1.3430 o         1 MOL     -0.385092
     33 C12         5.4220    1.1870    4.4910 c3        1 MOL     -0.339017
     34 C13         4.1810    0.3060    4.6350 c         1 MOL      0.781074
     35 O7          4.2940   -0.9020    4.3090 o         1 MOL     -0.721727
     36 O8          3.0700    0.7640    5.0290 o         1 MOL     -0.721727
     37 H13         3.6020    2.4270    3.5040 hn        1 MOL      0.229011
     38 H14         6.4900    2.2880    3.0350 h1        1 MOL      0.036907
     39 H15         5.4080    1.9970    5.2330 hc        1 MOL      0.072876
     40 H16         6.2880    0.5390    4.6160 hc        1 MOL      0.072876
     41 N4          6.5490    0.0400    1.7240 n         1 MOL     -0.309597
     42 C14         6.7840   -0.8430    0.5510 c3        1 MOL     -0.072342
     43 C15         8.2100   -1.4870    0.4950 c         1 MOL      0.617516
     44 O9          9.2170   -0.9310    0.9470 o         1 MOL     -0.543732
     45 H17         7.3090    0.1800    2.3680 hn        1 MOL      0.256563
     46 H18         6.5720   -0.4030   -0.4230 h1        1 MOL      0.080029
     47 H19         6.0380   -1.6260    0.6360 h1        1 MOL      0.080029
     48 N5          8.3820   -2.6740   -0.1100 n         1 MOL     -0.604923
     49 C16         7.4390   -3.5790   -0.7960 c3        1 MOL      0.227700
     50 C17         6.5710   -2.8170   -1.7740 c         1 MOL      0.568473
     51 O10         7.1180   -1.9340   -2.4860 o         1 MOL     -0.506509
     52 C18         8.1410   -4.7680   -1.4370 c3        1 MOL     -0.280504
     53 C19         7.2390   -5.9890   -1.3330 c         1 MOL      0.607034
     54 N6          7.5160   -6.8190   -0.3310 n         1 MOL     -0.784118
     55 O11         6.2320   -6.0700   -2.0380 o         1 MOL     -0.537924
     56 H20         9.2740   -3.0770    0.1140 hn        1 MOL      0.316959
     57 H21         6.8350   -3.9350    0.0310 h1        1 MOL      0.015897
     58 H22         9.0780   -5.0980   -0.9740 hc        1 MOL      0.097488
     59 H23         8.3510   -4.5840   -2.4900 hc        1 MOL      0.097488
     60 H24         8.3700   -6.5970    0.1650 hn        1 MOL      0.373770
     61 H25         7.0130   -7.6910   -0.1990 hn        1 MOL      0.373770
     62 N7          5.2960   -3.2000   -1.8810 n         1 MOL     -0.457667
     63 C20         4.3310   -2.5920   -2.7750 c3        1 MOL     -0.198731
     64 C21         2.9130   -3.2020   -2.7950 c         1 MOL      0.494924
     65 O12         2.2050   -3.1900   -3.8430 o         1 MOL     -0.538727
     66 H26         4.9980   -3.9620   -1.2810 hn        1 MOL      0.258723
     67 H27         4.8230   -2.5660   -3.7440 h1        1 MOL      0.153560
     68 H28         4.2200   -1.5420   -2.5230 h1        1 MOL      0.153560
     69 N8          2.4310   -3.8140   -1.6960 n         1 MOL     -0.135548
     70 C22         1.1960   -4.6030   -1.6650 c3        1 MOL     -0.049904
     71 C23         0.0790   -3.7490   -1.1950 c         1 MOL      0.754391
     72 O13         0.2240   -2.6640   -0.6730 o         1 MOL     -0.700139
     73 C24         1.3780   -5.8460   -0.8900 c3        1 MOL      0.352853
     74 C25         2.5220   -6.7280   -1.4050 c3        1 MOL     -0.580360
     75 O14         1.5850   -5.5590    0.4670 oh        1 MOL     -0.675779
     76 H29         2.8990   -3.6610   -0.8140 hn        1 MOL      0.189181
     77 H30         1.0390   -4.7520   -2.7310 h1        1 MOL      0.058826
     78 H31         0.4290   -6.3710   -0.9750 h1        1 MOL      0.005791
     79 H32         1.5200   -6.4270    0.8780 ho        1 MOL      0.433111
     80 H33         3.4650   -6.5240   -0.8860 hc        1 MOL      0.155371
     81 H34         2.1190   -7.7260   -1.2700 hc        1 MOL      0.155371
     82 H35         2.6220   -6.6310   -2.4840 hc        1 MOL      0.155371
     83 N9         -1.1860   -4.2250   -1.4620 n         1 MOL     -0.553885
     84 C26        -2.3400   -3.3740   -1.3290 c3        1 MOL      0.010670
     85 C27        -3.2020   -3.7790   -0.0740 c         1 MOL      0.440162
     86 O15        -3.1490   -4.9170    0.3120 o         1 MOL     -0.491080
     87 C28        -3.1800   -3.5610   -2.6370 c3        1 MOL      0.145849
     88 C29        -4.2280   -2.4610   -2.7370 c3        1 MOL      0.250881
     89 C30        -2.4230   -3.5810   -3.9840 c3        1 MOL     -0.310384
     90 C31        -5.4100   -2.7390   -3.7480 c3        1 MOL     -0.298243
     91 H36        -1.3250   -5.1800   -1.7580 hn        1 MOL      0.291703
     92 H37        -2.0900   -2.3150   -1.2890 h1        1 MOL      0.140958
     93 H38        -3.7190   -4.4970   -2.4970 hc        1 MOL     -0.008551
     94 H39        -3.8020   -1.4800   -2.9510 hc        1 MOL     -0.057558
     95 H40        -4.8090   -2.3570   -1.8260 hc        1 MOL     -0.057558
     96 H41        -3.1280   -3.7760   -4.7870 hc        1 MOL      0.068873
     97 H42        -1.8370   -2.6780   -4.1790 hc        1 MOL      0.068873
     98 H43        -1.6980   -4.3880   -3.9840 hc        1 MOL      0.068873
     99 H44        -5.9750   -3.6310   -3.4860 hc        1 MOL      0.055458
    100 H45        -6.1690   -1.9560   -3.7140 hc        1 MOL      0.055458
    101 H46        -5.0420   -2.6600   -4.7630 hc        1 MOL      0.055458
    102 N10        -3.8270   -2.8370    0.6310 n         1 MOL     -0.476948
    103 C32        -4.5600   -2.9600    1.9580 c3        1 MOL      0.010285
    104 C33        -5.9780   -2.3690    1.9730 c         1 MOL      0.606368
    105 O16        -6.8060   -2.7410    2.8220 o         1 MOL     -0.573514
    106 C34        -3.6820   -2.4210    3.0960 c3        1 MOL      0.044348
    107 C35        -2.1820   -2.6790    2.9250 c         1 MOL      0.790556
    108 O17        -1.3560   -1.7270    2.9600 o         1 MOL     -0.742554
    109 O18        -1.7340   -3.8510    2.9630 o         1 MOL     -0.742554
    110 H47        -3.8090   -1.8840    0.2990 hn        1 MOL      0.237516
    111 H48        -4.7410   -4.0010    2.2000 h1        1 MOL      0.084619
    112 H49        -3.9410   -2.8380    4.0700 hc        1 MOL     -0.027462
    113 H50        -3.8610   -1.3490    3.0920 hc        1 MOL     -0.027462
    114 N11        -6.2680   -1.4640    1.0210 n         1 MOL     -0.579893
    115 C36        -7.3590   -0.4600    1.1260 c3        1 MOL      0.147950
    116 C37        -7.0210    0.9480    0.5650 c         1 MOL      0.208654
    117 O19        -7.5180    1.3610   -0.4560 o         1 MOL     -0.311314
    118 C38        -8.6810   -1.0770    0.6270 c3        1 MOL     -0.251199
    119 C39        -9.9170   -0.1300    0.6240 ca        1 MOL      0.062288
    120 C40       -10.4610    0.3150    1.8770 ca        1 MOL     -0.144729
    121 C41       -10.5520    0.2930   -0.5660 ca        1 MOL     -0.144729
    122 C42       -11.6220    1.1290    1.8600 ca        1 MOL     -0.087239
    123 C43       -11.6580    1.0770   -0.5500 ca        1 MOL     -0.087239
    124 C44       -12.2700    1.5050    0.6390 ca        1 MOL     -0.169003
    125 H51        -5.4500   -1.0630    0.5770 hn        1 MOL      0.466281
    126 H52        -7.5010   -0.3630    2.2020 h1        1 MOL      0.079083
    127 H53        -8.9330   -2.0390    1.0770 hc        1 MOL      0.113176
    128 H54        -8.5650   -1.3280   -0.4290 hc        1 MOL      0.113176
    129 H55       -10.0120    0.0150    2.8110 ha        1 MOL      0.115248
    130 H56       -10.1560   -0.0630   -1.5120 ha        1 MOL      0.115248
    131 H57       -11.9580    1.3930    2.8490 ha        1 MOL      0.091145
    132 H58       -12.0890    1.2400   -1.5250 ha        1 MOL      0.091145
    133 H59       -13.1970    2.0610    0.6590 ha        1 MOL      0.112789
    134 N12        -6.2320    1.7110    1.3390 n         1 MOL     -0.084274
    135 C45        -5.8600    3.1290    1.1280 c3        1 MOL     -0.091158
    136 C46        -5.2650    3.4290   -0.2730 c         1 MOL      0.343604
    137 O20        -5.3320    4.5970   -0.6920 o         1 MOL     -0.499730
    138 C47        -4.8190    3.4320    2.2110 c3        1 MOL      0.049564
    139 C48        -5.0330    2.4750    3.3450 c3        1 MOL     -0.034171
    140 C49        -5.3900    1.2710    2.5000 c3        1 MOL     -0.052479
    141 H60        -6.7590    3.6910    1.3850 h1        1 MOL      0.093310
    142 H61        -3.8830    3.2890    1.6680 hc        1 MOL      0.025653
    143 H62        -4.9200    4.4280    2.6420 hc        1 MOL      0.025653
    144 H63        -4.0880    2.3550    3.8680 hc        1 MOL      0.031753
    145 H64        -5.8170    2.6840    4.0700 hc        1 MOL      0.031753
    146 H65        -4.4550    0.7660    2.2470 h1        1 MOL      0.056779
    147 H66        -6.0530    0.6300    3.0910 h1        1 MOL      0.056779
    148 N13        -4.7460    2.4010   -0.9950 n         1 MOL     -0.085529
    149 C50        -4.2190    2.6520   -2.3270 c3        1 MOL     -0.281994
    150 C51        -5.2500    3.0720   -3.3340 c         1 MOL      0.505925
    151 O21        -4.9490    3.7170   -4.3410 o         1 MOL     -0.551802
    152 C52        -3.5270    1.3540   -2.7920 c3        1 MOL     -0.069086
    153 C53        -2.2570    0.9020   -2.0470 c3        1 MOL     -0.118390
    154 C54        -2.6060    0.3580   -0.6420 c         1 MOL      0.906639
    155 O22        -1.6810    0.2020    0.2240 o         1 MOL     -0.892989
    156 O23        -3.7490   -0.1100   -0.3650 o         1 MOL     -0.892989
    157 H67        -4.5780    1.4880   -0.5880 hn        1 MOL      0.273888
    158 H68        -3.5190    3.4880   -2.2930 h1        1 MOL      0.157903
    159 H69        -3.2500    1.3770   -3.8500 hc        1 MOL      0.049881
    160 H70        -4.2750    0.5680   -2.7390 hc        1 MOL      0.049881
    161 H71        -1.5330    1.7110   -1.9640 hc        1 MOL      0.051564
    162 H72        -1.8650    0.0420   -2.5820 hc        1 MOL      0.051564
    163 N14        -6.5220    2.7490   -3.1070 n         1 MOL     -0.069569
    164 C55        -7.6090    3.1830   -3.9370 c3        1 MOL     -0.303856
    165 H73        -7.9200    4.1830   -3.6340 h1        1 MOL      0.108732
    166 H74        -7.2860    3.2040   -4.9780 h1        1 MOL      0.108732
    167 H75        -8.4460    2.4930   -3.8300 h1        1 MOL      0.108732
    168 H76        -6.7770    2.2780   -2.2530 hn        1 MOL      0.070093
    169 Ca1         0.3790   -0.8260    1.2120 Ca        1 MOL      1.855847
    170 O24         1.3200    0.3810   -1.1890 oh        1 MOL     -0.893567
    171 H77         1.9270    1.1330   -1.1800 ho        1 MOL      0.431768
    172 H78         1.0740    0.2860   -2.1120 ho        1 MOL      0.431768
    173 O25         0.9880   -3.3030    2.2460 oh        1 MOL     -0.893567
    174 H79         1.2430   -4.0770    1.7340 ho        1 MOL      0.431768
    175 H80         0.0640   -3.4640    2.4590 ho        1 MOL      0.431768
    176 O26         0.8680   -0.3650    3.8730 oh        1 MOL     -0.893567
    177 H81         1.7370   -0.0150    4.0940 ho        1 MOL      0.431768
    178 H82         0.3880   -0.3450    4.6990 ho        1 MOL      0.431768
    179 O27         2.8620   -1.5070    0.8040 oh        1 MOL     -0.893567
    180 H83         3.3770   -2.3030    0.9410 ho        1 MOL      0.431768
    181 H84         3.4820   -0.7920    0.9280 ho        1 MOL      0.431768
    182 O28         0.8720    1.8060    1.7080 oh        1 MOL     -0.893567
    183 H85         1.4210    2.5530    1.4710 ho        1 MOL      0.431768
    184 H86        -0.0270    2.1460    1.6720 ho        1 MOL      0.431768
@<TRIPOS>BOND
     1    1    2 1   
     2    1    4 1   
     3    1    5 1   
     4    1    6 1   
     5    2    3 2   
     6    2    7 1   
     7    7    8 1   
     8    7   15 1   
     9    8    9 1   
    10    8   11 1   
    11    8   16 1   
    12    9   10 2   
    13    9   19 1   
    14   11   12 1   
    15   11   17 1   
    16   11   18 1   
    17   12   13 1   
    18   12   14 1   
    19   19   20 1   
    20   19   24 1   
    21   20   21 1   
    22   20   23 1   
    23   20   25 1   
    24   21   22 2   
    25   21   29 1   
    26   23   26 1   
    27   23   27 1   
    28   23   28 1   
    29   29   30 1   
    30   29   37 1   
    31   30   31 1   
    32   30   33 1   
    33   30   38 1   
    34   31   32 2   
    35   31   41 1   
    36   33   34 1   
    37   33   39 1   
    38   33   40 1   
    39   34   35 1   
    40   34   36 1   
    41   41   42 1   
    42   41   45 1   
    43   42   43 1   
    44   42   46 1   
    45   42   47 1   
    46   43   44 2   
    47   43   48 1   
    48   48   49 1   
    49   48   56 1   
    50   49   50 1   
    51   49   52 1   
    52   49   57 1   
    53   50   51 2   
    54   50   62 1   
    55   52   53 1   
    56   52   58 1   
    57   52   59 1   
    58   53   54 1   
    59   53   55 2   
    60   54   60 1   
    61   54   61 1   
    62   62   63 1   
    63   62   66 1   
    64   63   64 1   
    65   63   67 1   
    66   63   68 1   
    67   64   65 2   
    68   64   69 1   
    69   69   70 1   
    70   69   76 1   
    71   70   71 1   
    72   70   73 1   
    73   70   77 1   
    74   71   72 2   
    75   71   83 1   
    76   73   74 1   
    77   73   75 1   
    78   73   78 1   
    79   74   80 1   
    80   74   81 1   
    81   74   82 1   
    82   75   79 1   
    83   83   84 1   
    84   83   91 1   
    85   84   85 1   
    86   84   87 1   
    87   84   92 1   
    88   85   86 2   
    89   85  102 1   
    90   87   88 1   
    91   87   89 1   
    92   87   93 1   
    93   88   90 1   
    94   88   94 1   
    95   88   95 1   
    96   89   96 1   
    97   89   97 1   
    98   89   98 1   
    99   90   99 1   
   100   90  100 1   
   101   90  101 1   
   102  102  103 1   
   103  102  110 1   
   104  103  104 1   
   105  103  106 1   
   106  103  111 1   
   107  104  105 2   
   108  104  114 1   
   109  106  107 1   
   110  106  112 1   
   111  106  113 1   
   112  107  108 1   
   113  107  109 1   
   114  114  115 1   
   115  114  125 1   
   116  115  116 1   
   117  115  118 1   
   118  115  126 1   
   119  116  117 2   
   120  116  134 1   
   121  118  119 1   
   122  118  127 1   
   123  118  128 1   
   124  119  120 ar  
   125  119  121 ar  
   126  120  122 ar  
   127  120  129 1   
   128  121  123 ar  
   129  121  130 1   
   130  122  124 ar  
   131  122  131 1   
   132  123  124 ar  
   133  123  132 1   
   134  124  133 1   
   135  134  135 1   
   136  134  140 1   
   137  135  136 1   
   138  135  138 1   
   139  135  141 1   
   140  136  137 2   
   141  136  148 1   
   142  138  139 1   
   143  138  142 1   
   144  138  143 1   
   145  139  140 1   
   146  139  144 1   
   147  139  145 1   
   148  140  146 1   
   149  140  147 1   
   150  148  149 1   
   151  148  157 1   
   152  149  150 1   
   153  149  152 1   
   154  149  158 1   
   155  150  151 2   
   156  150  163 1   
   157  152  153 1   
   158  152  159 1   
   159  152  160 1   
   160  153  154 1   
   161  153  161 1   
   162  153  162 1   
   163  154  155 1   
   164  154  156 1   
   165  163  164 1   
   166  163  168 1   
   167  164  165 1   
   168  164  166 1   
   169  164  167 1   
   170  170  171 1   
   171  170  172 1   
   172  173  174 1   
   173  173  175 1   
   174  176  177 1   
   175  176  178 1   
   176  179  180 1   
   177  179  181 1   
   178  182  183 1   
   179  182  184 1   
@<TRIPOS>SUBSTRUCTURE
     1 MOL         1 TEMP              0 ****  ****    0 ROOT
