@<TRIPOS>MOLECULE
MOL
  192   187     1     0     0
SMALL
resp


@<TRIPOS>ATOM
      1 C1         12.1500    5.1740   -2.2000 c3        1 MOL     -0.447951
      2 C2         12.1720    3.8710   -1.4000 c         1 MOL      0.615207
      3 O1         13.1500    3.0870   -1.3920 o         1 MOL     -0.572456
      4 H1         12.8420    5.0970   -3.0390 hc        1 MOL      0.123743
      5 H2         11.1420    5.3530   -2.5770 hc        1 MOL      0.123743
      6 H3         12.4500    6.0020   -1.5560 hc        1 MOL      0.123743
      7 N1         11.0270    3.5790   -0.7790 n         1 MOL     -0.107548
      8 C3         10.7870    2.3540   -0.0850 c3        1 MOL     -0.291471
      9 C4          9.4170    1.6860   -0.6010 c         1 MOL      0.530667
     10 O2          8.4750    2.4180   -0.9860 o         1 MOL     -0.607276
     11 C5         10.5930    2.6640    1.3930 c3        1 MOL     -0.022306
     12 C6         10.0240    4.0440    1.8390 c         1 MOL      0.718832
     13 O3         10.5060    4.6560    2.8120 o         1 MOL     -0.688409
     14 O4          9.1070    4.6140    1.1770 o         1 MOL     -0.688409
     15 H4         10.3090    4.2760   -0.8590 hn        1 MOL      0.016758
     16 H5         11.6410    1.6900   -0.2340 h1        1 MOL      0.144566
     17 H6         11.5380    2.8060    1.9070 hc        1 MOL      0.048925
     18 H7         10.0630    1.8560    1.8950 hc        1 MOL      0.048925
     19 N2          9.2740    0.3450   -0.5860 n         1 MOL     -0.442894
     20 C7          7.9900   -0.3220   -0.8340 c3        1 MOL      0.109940
     21 C8          7.1200   -0.2080    0.3300 c         1 MOL      0.869600
     22 O5          7.5760   -0.6370    1.4090 o         1 MOL     -0.610323
     23 C9          8.3330   -1.7830   -0.9980 c3        1 MOL     -0.204021
     24 C10         7.1390   -2.7370   -1.1950 c3        1 MOL      0.060259
     25 C11         7.6860   -4.0720   -1.6220 c3        1 MOL      0.089292
     26 C12         6.7810   -5.2990   -1.6940 c3        1 MOL      0.095710
     27 N3          7.3630   -6.5270   -2.2990 n4        1 MOL     -0.373815
     28 H8         10.0320   -0.2750   -0.3420 hn        1 MOL      0.302283
     29 H9          7.4830    0.0290   -1.7320 h1        1 MOL      0.020823
     30 H10         8.8640   -2.0420   -0.0910 hc        1 MOL      0.067473
     31 H11         9.0390   -1.7760   -1.8340 hc        1 MOL      0.067473
     32 H12         6.4330   -2.2940   -1.9040 hc        1 MOL     -0.018342
     33 H13         6.5330   -2.7590   -0.2820 hc        1 MOL     -0.018342
     34 H14         8.5360   -4.1910   -0.9440 hc        1 MOL     -0.010335
     35 H15         8.1610   -3.9290   -2.5900 hc        1 MOL     -0.010335
     36 H16         5.8790   -5.0410   -2.2600 hx        1 MOL      0.062076
     37 H17         6.5090   -5.5470   -0.6670 hx        1 MOL      0.062076
     38 H18         6.7260   -7.3060   -2.3000 hn        1 MOL      0.285654
     39 H19         7.5100   -6.4870   -3.3050 hn        1 MOL      0.285654
     40 H20         8.1670   -6.8280   -1.7700 hn        1 MOL      0.285654
     41 N4          5.8700    0.2660    0.2120 n         1 MOL     -0.626083
     42 C13         4.8650    0.3470    1.2670 c3        1 MOL      0.298271
     43 C14         3.4220    0.4140    0.6000 c         1 MOL      0.380360
     44 O6          3.2320    0.8830   -0.5170 o         1 MOL     -0.471561
     45 C15         5.0850    1.4780    2.2350 c3        1 MOL     -0.008814
     46 C16         5.7320    2.7010    1.6340 c         1 MOL      0.523959
     47 O7          5.0820    3.3880    0.7860 o         1 MOL     -0.702304
     48 O8          6.9440    2.8590    1.7950 o         1 MOL     -0.702304
     49 H21         5.5740    0.7100   -0.6460 hn        1 MOL      0.222043
     50 H22         4.9130   -0.6330    1.7540 h1        1 MOL      0.000963
     51 H23         5.7230    1.0570    3.0150 hc        1 MOL      0.016830
     52 H24         4.1230    1.7570    2.6620 hc        1 MOL      0.016830
     53 N5          2.3740    0.0140    1.3610 n         1 MOL     -0.379464
     54 C17         2.4520   -0.7720    2.6570 c3        1 MOL     -0.027726
     55 C18         2.4260   -2.3080    2.5110 c         1 MOL      0.593182
     56 O9          2.8450   -2.8050    1.5010 o         1 MOL     -0.488620
     57 H25         1.4830   -0.0480    0.8810 hn        1 MOL      0.286644
     58 H26         1.5280   -0.5060    3.1770 h1        1 MOL      0.055748
     59 H27         3.2950   -0.4950    3.2800 h1        1 MOL      0.055748
     60 N6          1.9850   -3.0460    3.5160 n         1 MOL     -0.453096
     61 C19         1.9870   -4.4780    3.4850 c3        1 MOL      0.052400
     62 C20         0.9340   -4.9800    2.4790 c         1 MOL      0.473517
     63 O10        -0.1280   -4.3960    2.4070 o         1 MOL     -0.479714
     64 C21         1.9680   -5.0080    4.9000 c3        1 MOL     -0.170917
     65 C22         1.9230   -6.5690    4.9430 c         1 MOL      0.680742
     66 O11         0.8480   -7.2630    4.9400 o         1 MOL     -0.657629
     67 O12         3.0130   -7.1260    5.0480 o         1 MOL     -0.657629
     68 H28         1.7130   -2.6470    4.4060 hn        1 MOL      0.293278
     69 H29         2.9310   -4.8080    3.0520 h1        1 MOL      0.031449
     70 H30         1.1370   -4.5890    5.4620 hc        1 MOL      0.046672
     71 H31         2.8310   -4.6120    5.4390 hc        1 MOL      0.046672
     72 N7          1.2880   -5.9560    1.6700 n         1 MOL     -0.382850
     73 C23         0.4750   -6.3420    0.4730 c3        1 MOL     -0.103399
     74 C24         0.6340   -5.4720   -0.7280 c         1 MOL      0.393356
     75 O13         0.1310   -5.8130   -1.7990 o         1 MOL     -0.561929
     76 H32         2.1690   -6.4260    1.7550 hn        1 MOL      0.283575
     77 H33        -0.5850   -6.2770    0.7330 h1        1 MOL      0.128093
     78 H34         0.6720   -7.3540    0.1240 h1        1 MOL      0.128093
     79 N8          1.2630   -4.2640   -0.6810 n         1 MOL     -0.044539
     80 C25         1.1960   -3.1550   -1.6690 c3        1 MOL     -0.039642
     81 C26         0.1860   -2.0240   -1.2390 c         1 MOL      0.203894
     82 O14         0.3600   -1.6470   -0.0680 o         1 MOL     -0.356162
     83 C27         2.5640   -2.6340   -2.0360 c3        1 MOL      0.648912
     84 C28         3.5290   -3.6830   -2.6060 c3        1 MOL     -0.183928
     85 O15         2.4640   -1.6830   -3.0690 oh        1 MOL     -0.704770
     86 H35         1.7300   -3.9770    0.1660 hn        1 MOL      0.018664
     87 H36         0.7210   -3.4140   -2.6150 h1        1 MOL      0.030908
     88 H37         2.9040   -2.0890   -1.1580 h1        1 MOL     -0.130972
     89 H38         3.2720   -1.1810   -2.9250 ho        1 MOL      0.382107
     90 H39         4.4900   -3.2450   -2.8830 hc        1 MOL      0.013326
     91 H40         3.6420   -4.4790   -1.8630 hc        1 MOL      0.013326
     92 H41         3.0260   -4.1780   -3.4420 hc        1 MOL      0.013326
     93 N9         -0.6540   -1.4490   -2.1200 n         1 MOL     -0.119042
     94 C29        -1.3240   -0.2150   -1.8780 c3        1 MOL     -0.414375
     95 C30        -2.7020   -0.5110   -1.1150 c         1 MOL      0.658693
     96 O16        -3.1080    0.2540   -0.2260 o         1 MOL     -0.514880
     97 C31        -1.3410    0.6890   -3.1750 c3        1 MOL      0.141387
     98 C32         0.1010    0.8250   -3.6980 c3        1 MOL      0.016580
     99 C33        -1.9930    2.0390   -2.7740 c3        1 MOL     -0.201016
    100 C34         0.2360    1.8810   -4.8010 c3        1 MOL     -0.216836
    101 H42        -0.8250   -1.9190   -2.9920 hn        1 MOL      0.265117
    102 H43        -0.6770    0.3760   -1.2200 h1        1 MOL      0.165279
    103 H44        -1.8580    0.0580   -3.8870 hc        1 MOL     -0.008494
    104 H45         0.4460   -0.1270   -4.0780 hc        1 MOL      0.048641
    105 H46         0.7370    1.2410   -2.9230 hc        1 MOL      0.048641
    106 H47        -1.7550    2.2820   -1.7340 hc        1 MOL      0.068992
    107 H48        -1.9210    2.8240   -3.5320 hc        1 MOL      0.068992
    108 H49        -3.0620    1.8370   -2.7820 hc        1 MOL      0.068992
    109 H50         0.2850    2.9360   -4.5240 hc        1 MOL      0.045599
    110 H51         1.0900    1.6180   -5.4310 hc        1 MOL      0.045599
    111 H52        -0.6290    1.7390   -5.4530 hc        1 MOL      0.045599
    112 N10        -3.3900   -1.5730   -1.5510 n         1 MOL     -0.408378
    113 C35        -4.5410   -2.2300   -0.8260 c3        1 MOL     -0.203836
    114 C36        -5.7070   -2.4570   -1.7720 c         1 MOL      0.643103
    115 O17        -5.6250   -3.0960   -2.8300 o         1 MOL     -0.525717
    116 C37        -4.0050   -3.3780   -0.0200 c3        1 MOL      0.351369
    117 C38        -2.8480   -4.2080   -0.5210 c3        1 MOL     -0.297077
    118 O18        -3.4850   -2.9470    1.1830 oh        1 MOL     -0.570383
    119 H53        -3.0280   -2.1170   -2.3250 hn        1 MOL      0.266886
    120 H54        -4.8680   -1.4930   -0.0880 h1        1 MOL      0.130467
    121 H55        -4.8340   -4.0500    0.2030 h1        1 MOL     -0.015938
    122 H56        -3.8450   -3.5260    1.8540 ho        1 MOL      0.392612
    123 H57        -1.9220   -3.6280   -0.4100 hc        1 MOL      0.090764
    124 H58        -2.6760   -5.0640    0.1270 hc        1 MOL      0.090764
    125 H59        -3.0140   -4.5280   -1.5460 hc        1 MOL      0.090764
    126 N11        -6.8650   -1.9480   -1.3560 n         1 MOL     -0.587983
    127 C39        -8.0940   -2.0790   -2.0680 c3        1 MOL      0.058103
    128 C40        -8.9260   -0.8140   -2.0160 c         1 MOL      0.595791
    129 O19        -9.5550   -0.6010   -3.0560 o         1 MOL     -0.595894
    130 C41        -8.8840   -3.2800   -1.5510 c3        1 MOL      0.168961
    131 C42       -10.2410   -3.6220   -2.2290 c3        1 MOL     -0.240790
    132 O20        -9.1610   -3.1500   -0.1860 oh        1 MOL     -0.585720
    133 H60        -6.9460   -1.6370   -0.3990 hn        1 MOL      0.319352
    134 H61        -7.9330   -2.2640   -3.1230 h1        1 MOL      0.103757
    135 H62        -8.3210   -4.1630   -1.8130 h1        1 MOL      0.053962
    136 H63        -8.4570   -3.6100    0.2690 ho        1 MOL      0.386705
    137 H64       -10.1200   -3.8610   -3.2880 hc        1 MOL      0.075979
    138 H65       -10.7410   -4.5200   -1.8410 hc        1 MOL      0.075979
    139 H66       -10.9660   -2.8080   -2.1690 hc        1 MOL      0.075979
    140 N12        -9.0690   -0.0830   -0.9310 n         1 MOL     -0.320738
    141 C43        -9.8530    1.1800   -0.7290 c3        1 MOL     -0.302167
    142 C44        -9.1870    1.9110    0.4020 c         1 MOL      0.554252
    143 O21        -8.7820    1.3020    1.4930 o         1 MOL     -0.513687
    144 C45       -11.2680    0.7490   -0.3690 c3        1 MOL      0.078631
    145 C46       -12.2980    1.8510    0.0950 c3        1 MOL     -0.210089
    146 C47       -13.7290    1.2880    0.1600 c3        1 MOL      0.024004
    147 C48       -13.8890    0.1340    1.2310 c3        1 MOL      0.058907
    148 N13       -15.2760   -0.3920    1.2250 n4        1 MOL     -0.283786
    149 H67        -8.5860   -0.5620   -0.1870 hn        1 MOL      0.231170
    150 H68        -9.9090    1.7940   -1.6280 h1        1 MOL      0.181995
    151 H69       -11.3180    0.0280    0.4420 hc        1 MOL      0.044827
    152 H70       -11.7160    0.2300   -1.2210 hc        1 MOL      0.044827
    153 H71       -12.2400    2.5830   -0.7200 hc        1 MOL      0.078952
    154 H72       -11.9790    2.2040    1.0700 hc        1 MOL      0.078952
    155 H73       -14.0950    0.8860   -0.7910 hc        1 MOL      0.027299
    156 H74       -14.3620    2.0620    0.5990 hc        1 MOL      0.027299
    157 H75       -13.6840    0.4920    2.2360 hx        1 MOL      0.077737
    158 H76       -13.1860   -0.6340    0.9040 hx        1 MOL      0.077737
    159 H77       -15.4170   -0.9860    2.0280 hn        1 MOL      0.257627
    160 H78       -15.9220    0.3750    1.2990 hn        1 MOL      0.257627
    161 H79       -15.4940   -0.8120    0.3310 hn        1 MOL      0.257627
    162 N14        -8.9700    3.2090    0.2620 n         1 MOL     -0.381393
    163 C49        -8.3230    4.0020    1.2680 c3        1 MOL      0.266290
    164 C50        -6.8250    3.6850    1.3150 c         1 MOL      0.427087
    165 O22        -6.4040    3.0720    2.2620 o         1 MOL     -0.519383
    166 C51        -8.6010    5.5720    1.0780 c3        1 MOL     -0.265185
    167 C52        -9.8160    5.9120    2.0140 c3        1 MOL     -0.200111
    168 C53       -10.2110    7.3780    1.9480 c         1 MOL      0.696914
    169 O23       -10.3520    8.0260    3.0470 o         1 MOL     -0.659380
    170 O24       -10.4620    7.9230    0.8320 o         1 MOL     -0.659380
    171 H80        -9.4090    3.6410   -0.5400 hn        1 MOL      0.262994
    172 H81        -8.7990    3.6280    2.1610 h1        1 MOL      0.028972
    173 H82        -8.7400    5.7910    0.0170 hc        1 MOL      0.107913
    174 H83        -7.7460    6.1400    1.4510 hc        1 MOL      0.107913
    175 H84        -9.5500    5.5920    3.0160 hc        1 MOL      0.052006
    176 H85       -10.7160    5.3300    1.8130 hc        1 MOL      0.052006
    177 N15        -5.9550    4.0240    0.3510 n         1 MOL     -0.424491
    178 C54        -6.1820    4.6420   -0.9880 c3        1 MOL      0.059894
    179 H86        -5.3790    4.3490   -1.6640 h1        1 MOL      0.019566
    180 H87        -7.1360    4.3000   -1.3890 h1        1 MOL      0.019566
    181 H88        -6.1970    5.7270   -0.8900 h1        1 MOL      0.019566
    182 H89        -5.0270    3.6710    0.4920 hn        1 MOL      0.309729
    183 Ca1         6.9810    4.5590   -0.2830 Ca        1 MOL      1.766170
    184 O25         6.4160    6.3570    1.9320 oh        1 MOL     -0.871150
    185 H90         7.2520    6.3270    2.3890 ho        1 MOL      0.433410
    186 H91         5.7750    5.9970    2.5500 ho        1 MOL      0.433410
    187 O26         5.6960    2.9800   -2.0500 oh        1 MOL     -0.871150
    188 H92         6.2770    2.7080   -2.7540 ho        1 MOL      0.433410
    189 H93         4.8110    2.7980   -2.3680 ho        1 MOL      0.433410
    190 O27         4.5860    5.6550   -1.0650 oh        1 MOL     -0.871150
    191 H94         4.2250    6.3530   -0.5250 ho        1 MOL      0.433410
    192 H95         3.8250    5.1240   -1.3150 ho        1 MOL      0.433410
@<TRIPOS>BOND
     1    1    2 1   
     2    1    4 1   
     3    1    5 1   
     4    1    6 1   
     5    2    3 2   
     6    2    7 1   
     7    7    8 1   
     8    7   15 1   
     9    8    9 1   
    10    8   11 1   
    11    8   16 1   
    12    9   10 2   
    13    9   19 1   
    14   11   12 1   
    15   11   17 1   
    16   11   18 1   
    17   12   13 1   
    18   12   14 1   
    19   19   20 1   
    20   19   28 1   
    21   20   21 1   
    22   20   23 1   
    23   20   29 1   
    24   21   22 2   
    25   21   41 1   
    26   23   24 1   
    27   23   30 1   
    28   23   31 1   
    29   24   25 1   
    30   24   32 1   
    31   24   33 1   
    32   25   26 1   
    33   25   34 1   
    34   25   35 1   
    35   26   27 1   
    36   26   36 1   
    37   26   37 1   
    38   27   38 1   
    39   27   39 1   
    40   27   40 1   
    41   41   42 1   
    42   41   49 1   
    43   42   43 1   
    44   42   45 1   
    45   42   50 1   
    46   43   44 2   
    47   43   53 1   
    48   45   46 1   
    49   45   51 1   
    50   45   52 1   
    51   46   47 1   
    52   46   48 1   
    53   53   54 1   
    54   53   57 1   
    55   54   55 1   
    56   54   58 1   
    57   54   59 1   
    58   55   56 2   
    59   55   60 1   
    60   60   61 1   
    61   60   68 1   
    62   61   62 1   
    63   61   64 1   
    64   61   69 1   
    65   62   63 2   
    66   62   72 1   
    67   64   65 1   
    68   64   70 1   
    69   64   71 1   
    70   65   66 1   
    71   65   67 1   
    72   72   73 1   
    73   72   76 1   
    74   73   74 1   
    75   73   77 1   
    76   73   78 1   
    77   74   75 2   
    78   74   79 1   
    79   79   80 1   
    80   79   86 1   
    81   80   81 1   
    82   80   83 1   
    83   80   87 1   
    84   81   82 2   
    85   81   93 1   
    86   83   84 1   
    87   83   85 1   
    88   83   88 1   
    89   84   90 1   
    90   84   91 1   
    91   84   92 1   
    92   85   89 1   
    93   93   94 1   
    94   93  101 1   
    95   94   95 1   
    96   94   97 1   
    97   94  102 1   
    98   95   96 2   
    99   95  112 1   
   100   97   98 1   
   101   97   99 1   
   102   97  103 1   
   103   98  100 1   
   104   98  104 1   
   105   98  105 1   
   106   99  106 1   
   107   99  107 1   
   108   99  108 1   
   109  100  109 1   
   110  100  110 1   
   111  100  111 1   
   112  112  113 1   
   113  112  119 1   
   114  113  114 1   
   115  113  116 1   
   116  113  120 1   
   117  114  115 2   
   118  114  126 1   
   119  116  117 1   
   120  116  118 1   
   121  116  121 1   
   122  117  123 1   
   123  117  124 1   
   124  117  125 1   
   125  118  122 1   
   126  126  127 1   
   127  126  133 1   
   128  127  128 1   
   129  127  130 1   
   130  127  134 1   
   131  128  129 2   
   132  128  140 1   
   133  130  131 1   
   134  130  132 1   
   135  130  135 1   
   136  131  137 1   
   137  131  138 1   
   138  131  139 1   
   139  132  136 1   
   140  140  141 1   
   141  140  149 1   
   142  141  142 1   
   143  141  144 1   
   144  141  150 1   
   145  142  143 2   
   146  142  162 1   
   147  144  145 1   
   148  144  151 1   
   149  144  152 1   
   150  145  146 1   
   151  145  153 1   
   152  145  154 1   
   153  146  147 1   
   154  146  155 1   
   155  146  156 1   
   156  147  148 1   
   157  147  157 1   
   158  147  158 1   
   159  148  159 1   
   160  148  160 1   
   161  148  161 1   
   162  162  163 1   
   163  162  171 1   
   164  163  164 1   
   165  163  166 1   
   166  163  172 1   
   167  164  165 2   
   168  164  177 1   
   169  166  167 1   
   170  166  173 1   
   171  166  174 1   
   172  167  168 1   
   173  167  175 1   
   174  167  176 1   
   175  168  169 1   
   176  168  170 1   
   177  177  178 1   
   178  177  182 1   
   179  178  179 1   
   180  178  180 1   
   181  178  181 1   
   182  184  185 1   
   183  184  186 1   
   184  187  188 1   
   185  187  189 1   
   186  190  191 1   
   187  190  192 1   
@<TRIPOS>SUBSTRUCTURE
     1 MOL         1 TEMP              0 ****  ****    0 ROOT
