@<TRIPOS>MOLECULE
MOL
  185   180     1     0     0
SMALL
resp


@<TRIPOS>ATOM
      1 C1          6.2840    0.3560    5.4910 c3        1 MOL     -0.484266
      2 C2          5.4360    0.6130    4.2290 c         1 MOL      0.616704
      3 O1          4.1950    0.6970    4.2790 o         1 MOL     -0.581622
      4 H1          6.2660    1.2410    6.1260 hc        1 MOL      0.123931
      5 H2          5.8750   -0.4930    6.0380 hc        1 MOL      0.123931
      6 H3          7.3120    0.1400    5.2000 hc        1 MOL      0.123931
      7 N1          6.1720    0.6190    3.1010 n         1 MOL     -0.446340
      8 C3          5.6550    0.7250    1.7300 c3        1 MOL      0.123203
      9 C4          4.8240   -0.4990    1.3030 c         1 MOL      0.458120
     10 O2          3.7980   -0.3430    0.7210 o         1 MOL     -0.533162
     11 C5          6.8340    0.8820    0.6870 c3        1 MOL     -0.243396
     12 C6          8.1510    0.2740    1.1400 c         1 MOL      0.697027
     13 O3          9.1850    0.8900    1.4850 o         1 MOL     -0.663912
     14 O4          8.1200   -0.9300    1.3880 o         1 MOL     -0.663912
     15 H4          7.1700    0.4910    3.2240 hn        1 MOL      0.304734
     16 H5          4.9780    1.5790    1.6740 h1        1 MOL      0.081305
     17 H6          6.9120    1.9690    0.6100 hc        1 MOL      0.068453
     18 H7          6.5540    0.4640   -0.2740 hc        1 MOL      0.068453
     19 N2          5.3120   -1.7100    1.6320 n         1 MOL     -0.389690
     20 C7          4.8290   -2.9980    1.1910 c3        1 MOL     -0.145740
     21 C8          4.8410   -3.0170   -0.3700 c         1 MOL      0.639216
     22 O5          5.8660   -3.0290   -1.0280 o         1 MOL     -0.494557
     23 C9          5.6320   -4.0930    1.9480 c3        1 MOL     -0.021520
     24 C10         5.1840   -4.2950    3.3930 c3        1 MOL     -0.148150
     25 C11         6.0590   -5.2590    4.1390 c3        1 MOL      0.041902
     26 C12         5.6550   -5.3540    5.6070 c3        1 MOL      0.144153
     27 N3          6.6400   -6.0390    6.4450 n4        1 MOL     -0.503100
     28 H8          6.2880   -1.7070    1.8930 hn        1 MOL      0.264048
     29 H9          3.7690   -3.0890    1.4570 h1        1 MOL      0.163549
     30 H10         6.6810   -3.8130    1.9450 hc        1 MOL      0.047887
     31 H11         5.5850   -5.0810    1.4940 hc        1 MOL      0.047887
     32 H12         4.1010   -4.4880    3.4280 hc        1 MOL      0.061155
     33 H13         5.4280   -3.3310    3.8420 hc        1 MOL      0.061155
     34 H14         7.0960   -4.9450    4.0600 hc        1 MOL      0.024016
     35 H15         5.9570   -6.3060    3.8600 hc        1 MOL      0.024016
     36 H16         4.7270   -5.9310    5.6230 hx        1 MOL      0.046154
     37 H17         5.4990   -4.3230    5.9190 hx        1 MOL      0.046154
     38 H18         6.4540   -5.9940    7.4430 hn        1 MOL      0.343044
     39 H19         6.6360   -6.9970    6.1520 hn        1 MOL      0.343044
     40 H20         7.5110   -5.5290    6.3720 hn        1 MOL      0.343044
     41 N4          3.5830   -3.1470   -0.9000 n         1 MOL     -0.402585
     42 C13         3.2470   -3.5130   -2.2690 c3        1 MOL      0.101773
     43 C14         3.2560   -2.3510   -3.2630 c         1 MOL      0.552406
     44 O6          3.0270   -1.1620   -2.8620 o         1 MOL     -0.492907
     45 C15         1.8830   -4.2750   -2.2830 c3        1 MOL     -0.506572
     46 C16         0.7720   -3.5550   -1.5570 c         1 MOL      0.897465
     47 O7          0.6250   -3.3780   -0.2910 o         1 MOL     -0.769442
     48 O8         -0.1260   -2.9790   -2.1550 o         1 MOL     -0.769442
     49 H21         2.7730   -2.9390   -0.3260 hn        1 MOL      0.145873
     50 H22         4.1020   -4.1500   -2.4900 h1        1 MOL      0.069200
     51 H23         2.0710   -5.1800   -1.7120 hc        1 MOL      0.132767
     52 H24         1.6390   -4.4970   -3.3120 hc        1 MOL      0.132767
     53 N5          3.7000   -2.6280   -4.4370 n         1 MOL     -0.502108
     54 C17         4.5310   -1.6600   -5.1470 c3        1 MOL      0.173432
     55 C18         5.9180   -1.4230   -4.3650 c         1 MOL      0.397505
     56 O9          6.6970   -2.3300   -4.1130 o         1 MOL     -0.479847
     57 H25         3.8110   -3.5970   -4.6920 hn        1 MOL      0.330077
     58 H26         3.9860   -0.7160   -5.1480 h1        1 MOL      0.002168
     59 H27         4.7920   -1.7740   -6.1940 h1        1 MOL      0.002168
     60 N6          6.2500   -0.1970   -3.7910 n         1 MOL     -0.344035
     61 C19         5.3960    1.0080   -3.8250 c3        1 MOL      0.032798
     62 C20         5.9490    1.9620   -2.7550 c         1 MOL      0.471215
     63 O10         7.0900    2.3550   -2.8130 o         1 MOL     -0.518634
     64 C21         5.5490    1.7540   -5.2120 c3        1 MOL     -0.329329
     65 C22         4.3410    2.5880   -5.5250 c         1 MOL      0.728702
     66 N7          3.5180    2.1640   -6.4300 n         1 MOL     -0.786978
     67 O11         4.0790    3.6290   -4.9520 o         1 MOL     -0.568125
     68 H28         7.2340   -0.1000   -3.5970 hn        1 MOL      0.308671
     69 H29         4.3850    0.6890   -3.5700 h1        1 MOL      0.065905
     70 H30         5.5480    0.9720   -5.9680 hc        1 MOL      0.114560
     71 H31         6.4890    2.2910   -5.2890 hc        1 MOL      0.114560
     72 H32         3.5380    1.2940   -6.9340 hn        1 MOL      0.348913
     73 H33         2.6680    2.6730   -6.5860 hn        1 MOL      0.348913
     74 N8          5.1940    2.4910   -1.7830 n         1 MOL     -0.398843
     75 C23         3.8910    1.9560   -1.5290 c3        1 MOL      0.069430
     76 C24         3.2020    2.7620   -0.4190 c         1 MOL      0.485588
     77 O12         3.8470    3.6660    0.2070 o         1 MOL     -0.508287
     78 H34         5.5560    3.1870   -1.1380 hn        1 MOL      0.308219
     79 H35         3.9910    0.8800   -1.3850 h1        1 MOL      0.031865
     80 H36         3.3550    1.9750   -2.4770 h1        1 MOL      0.031865
     81 N9          1.8760    2.5510   -0.2930 n         1 MOL     -0.434489
     82 C25         0.9540    3.4700    0.4170 c3        1 MOL      0.121970
     83 C26        -0.3320    2.6300    0.6550 c         1 MOL      0.533949
     84 O13        -0.5130    1.6000    0.0360 o         1 MOL     -0.513682
     85 C27         0.5580    4.8440   -0.2130 c3        1 MOL     -0.220474
     86 C28        -0.2350    5.8870    0.6170 ca        1 MOL      0.073259
     87 C29        -1.2820    6.7010    0.1430 ca        1 MOL     -0.185031
     88 C30         0.2170    6.0670    1.9040 ca        1 MOL     -0.185031
     89 C31        -1.8380    7.5870    1.0680 ca        1 MOL     -0.181030
     90 C32        -0.4520    6.8460    2.8250 ca        1 MOL     -0.181030
     91 C33        -1.5530    7.6580    2.4240 ca        1 MOL      0.300049
     92 O14        -2.1150    8.5800    3.2320 oh        1 MOL     -0.491837
     93 H37         1.4920    1.7890   -0.8290 hn        1 MOL      0.210572
     94 H38         1.4530    3.6920    1.3630 h1        1 MOL      0.039874
     95 H39         0.0210    4.7190   -1.1630 hc        1 MOL      0.104354
     96 H40         1.4970    5.3010   -0.5120 hc        1 MOL      0.104354
     97 H41        -1.6880    6.6750   -0.8600 ha        1 MOL      0.156501
     98 H42         0.9840    5.4500    2.3590 ha        1 MOL      0.156501
     99 H43        -2.5790    8.3060    0.7710 ha        1 MOL      0.110566
    100 H44         0.0360    7.0970    3.7500 ha        1 MOL      0.110566
    101 H45        -1.7500    8.5690    4.1200 ho        1 MOL      0.378306
    102 N10        -1.0720    2.9250    1.6650 n         1 MOL     -0.382168
    103 C34        -2.4050    2.3340    1.8110 c3        1 MOL     -0.034912
    104 C35        -3.3020    2.5300    0.5770 c         1 MOL      0.527825
    105 O15        -3.1720    3.5470   -0.1910 o         1 MOL     -0.546720
    106 C36        -3.0050    2.8220    3.1470 c3        1 MOL      0.698156
    107 C37        -2.6330    1.9810    4.3650 c3        1 MOL      0.009846
    108 C38        -2.8000    4.3200    3.3310 c3        1 MOL     -0.272306
    109 C39        -3.3810    2.4250    5.6280 c3        1 MOL     -0.141462
    110 H46        -0.8750    3.7620    2.1920 hn        1 MOL      0.197048
    111 H47        -2.2840    1.2450    1.7830 h1        1 MOL     -0.073400
    112 H48        -4.0710    2.6310    3.0150 hc        1 MOL     -0.187935
    113 H49        -1.5490    2.0630    4.4040 hc        1 MOL     -0.028011
    114 H50        -2.9160    0.9530    4.1380 hc        1 MOL     -0.028011
    115 H51        -3.0910    4.8730    2.4340 hc        1 MOL      0.032278
    116 H52        -3.5180    4.6840    4.0720 hc        1 MOL      0.032278
    117 H53        -1.7650    4.5450    3.5630 hc        1 MOL      0.032278
    118 H54        -4.4320    2.6950    5.4860 hc        1 MOL      0.026259
    119 H55        -3.3500    1.6540    6.4040 hc        1 MOL      0.026259
    120 H56        -2.9470    3.3600    5.9880 hc        1 MOL      0.026259
    121 N11        -4.3130    1.7560    0.4300 n         1 MOL     -0.475348
    122 C40        -5.3210    2.0120   -0.6430 c3        1 MOL      0.025953
    123 C41        -5.8040    0.8050   -1.4670 c         1 MOL      0.530474
    124 O16        -5.7280   -0.3310   -1.0030 o         1 MOL     -0.372733
    125 C42        -6.4860    2.7380    0.0390 c3        1 MOL      0.100908
    126 O17        -6.8680    2.1280    1.2100 oh        1 MOL     -0.577021
    127 H57        -4.5540    1.0270    1.0820 hn        1 MOL      0.322998
    128 H58        -4.8880    2.7710   -1.2940 h1        1 MOL      0.050482
    129 H59        -7.3670    2.9510   -0.5710 h1        1 MOL      0.037698
    130 H60        -6.1090    3.7080    0.3770 h1        1 MOL      0.037698
    131 H61        -7.4570    2.7100    1.7060 ho        1 MOL      0.405244
    132 N12        -6.3820    1.1150   -2.6110 n         1 MOL     -0.459429
    133 C43        -6.9840    0.1340   -3.5030 c3        1 MOL      0.000970
    134 C44        -8.0600   -0.9050   -2.9110 c         1 MOL      0.439939
    135 O18        -8.1810   -2.0330   -3.4250 o         1 MOL     -0.449828
    136 C45        -5.8720   -0.6720   -4.2370 c3        1 MOL     -0.129829
    137 H62        -6.3580    2.0740   -2.9080 hn        1 MOL      0.301461
    138 H63        -7.3930    0.7300   -4.3100 h1        1 MOL      0.103770
    139 H64        -5.4070   -1.3440   -3.5340 hc        1 MOL      0.046207
    140 H65        -6.2960   -1.2430   -5.0680 hc        1 MOL      0.046207
    141 H66        -5.1680    0.0440   -4.6700 hc        1 MOL      0.046207
    142 N13        -8.8520   -0.5850   -1.8870 n         1 MOL     -0.515564
    143 C46        -9.6750   -1.4170   -1.1080 c3        1 MOL      0.437484
    144 C47        -8.9220   -2.5790   -0.4600 c         1 MOL      0.185508
    145 O19        -9.5430   -3.6480   -0.1640 o         1 MOL     -0.450301
    146 C48       -11.0540   -1.7910   -1.7110 c3        1 MOL     -0.527445
    147 H67        -8.7210    0.3570   -1.5300 hn        1 MOL      0.269987
    148 H68        -9.8880   -0.7910   -0.2370 h1        1 MOL     -0.010350
    149 H69       -11.5920   -2.3420   -0.9390 hc        1 MOL      0.149030
    150 H70       -11.5450   -0.9690   -2.2390 hc        1 MOL      0.149030
    151 H71       -10.9170   -2.4490   -2.5680 hc        1 MOL      0.149030
    152 N14        -7.5660   -2.4620   -0.1710 n         1 MOL     -0.023825
    153 C49        -6.7460   -3.5880    0.3640 c3        1 MOL     -0.203076
    154 C50        -7.2300   -4.0590    1.7940 c         1 MOL      0.468861
    155 O20        -7.3500   -5.2770    2.0260 o         1 MOL     -0.532141
    156 C51        -5.2490   -3.2740    0.3100 c3        1 MOL      0.136177
    157 C52        -4.6740   -2.4480    1.4420 c3        1 MOL     -0.046254
    158 C53        -3.2600   -2.0820    1.1110 c         1 MOL      0.627420
    159 O21        -2.8980   -0.8670    1.0480 o         1 MOL     -0.686900
    160 O22        -2.3790   -2.9430    0.7890 o         1 MOL     -0.686900
    161 H72        -7.1210   -1.5710   -0.3260 hn        1 MOL      0.076856
    162 H73        -6.8320   -4.4050   -0.3570 h1        1 MOL      0.127373
    163 H74        -5.0250   -2.8060   -0.6440 hc        1 MOL     -0.002096
    164 H75        -4.6320   -4.1720    0.2920 hc        1 MOL     -0.002096
    165 H76        -4.6500   -3.0120    2.3700 hc        1 MOL     -0.005006
    166 H77        -5.2130   -1.5230    1.6810 hc        1 MOL     -0.005006
    167 N15        -7.5840   -3.1660    2.6860 n         1 MOL     -0.180796
    168 C54        -7.9490   -3.4830    4.0550 c3        1 MOL     -0.145392
    169 H78        -8.1720   -4.5470    4.1340 h1        1 MOL      0.079708
    170 H79        -7.1200   -3.2350    4.7200 h1        1 MOL      0.079708
    171 H80        -8.8290   -2.9050    4.3400 h1        1 MOL      0.079708
    172 H81        -7.6530   -2.2090    2.3700 hn        1 MOL      0.180548
    173 Ca1        -0.9070   -1.1960   -0.4700 Ca        1 MOL      1.791231
    174 O23        -2.9680   -2.2990   -1.8410 oh        1 MOL     -0.857083
    175 H82        -3.2780   -1.9930   -2.6940 ho        1 MOL      0.422187
    176 H83        -3.1180   -3.2430   -1.8620 ho        1 MOL      0.422187
    177 O24         0.3160   -0.6710    1.8610 oh        1 MOL     -0.857083
    178 H84         0.6870   -1.4210    2.3320 ho        1 MOL      0.422187
    179 H85         0.7180    0.0970    2.2610 ho        1 MOL      0.422187
    180 O25         1.5240   -0.3750   -0.9230 oh        1 MOL     -0.857083
    181 H86         2.0740   -0.3190   -1.7120 ho        1 MOL      0.422187
    182 H87         2.1350   -0.2350   -0.2060 ho        1 MOL      0.422187
    183 O26        -1.0130    0.2350   -2.7840 oh        1 MOL     -0.857083
    184 H88        -0.8950   -0.0070   -3.6980 ho        1 MOL      0.422187
    185 H89        -1.3850    1.1190   -2.8160 ho        1 MOL      0.422187
@<TRIPOS>BOND
     1    1    2 1   
     2    1    4 1   
     3    1    5 1   
     4    1    6 1   
     5    2    3 2   
     6    2    7 1   
     7    7    8 1   
     8    7   15 1   
     9    8    9 1   
    10    8   11 1   
    11    8   16 1   
    12    9   10 2   
    13    9   19 1   
    14   11   12 1   
    15   11   17 1   
    16   11   18 1   
    17   12   13 1   
    18   12   14 1   
    19   19   20 1   
    20   19   28 1   
    21   20   21 1   
    22   20   23 1   
    23   20   29 1   
    24   21   22 2   
    25   21   41 1   
    26   23   24 1   
    27   23   30 1   
    28   23   31 1   
    29   24   25 1   
    30   24   32 1   
    31   24   33 1   
    32   25   26 1   
    33   25   34 1   
    34   25   35 1   
    35   26   27 1   
    36   26   36 1   
    37   26   37 1   
    38   27   38 1   
    39   27   39 1   
    40   27   40 1   
    41   41   42 1   
    42   41   49 1   
    43   42   43 1   
    44   42   45 1   
    45   42   50 1   
    46   43   44 2   
    47   43   53 1   
    48   45   46 1   
    49   45   51 1   
    50   45   52 1   
    51   46   47 1   
    52   46   48 1   
    53   53   54 1   
    54   53   57 1   
    55   54   55 1   
    56   54   58 1   
    57   54   59 1   
    58   55   56 2   
    59   55   60 1   
    60   60   61 1   
    61   60   68 1   
    62   61   62 1   
    63   61   64 1   
    64   61   69 1   
    65   62   63 2   
    66   62   74 1   
    67   64   65 1   
    68   64   70 1   
    69   64   71 1   
    70   65   66 1   
    71   65   67 2   
    72   66   72 1   
    73   66   73 1   
    74   74   75 1   
    75   74   78 1   
    76   75   76 1   
    77   75   79 1   
    78   75   80 1   
    79   76   77 2   
    80   76   81 1   
    81   81   82 1   
    82   81   93 1   
    83   82   83 1   
    84   82   85 1   
    85   82   94 1   
    86   83   84 2   
    87   83  102 1   
    88   85   86 1   
    89   85   95 1   
    90   85   96 1   
    91   86   87 ar  
    92   86   88 ar  
    93   87   89 ar  
    94   87   97 1   
    95   88   90 ar  
    96   88   98 1   
    97   89   91 ar  
    98   89   99 1   
    99   90   91 ar  
   100   90  100 1   
   101   91   92 1   
   102   92  101 1   
   103  102  103 1   
   104  102  110 1   
   105  103  104 1   
   106  103  106 1   
   107  103  111 1   
   108  104  105 2   
   109  104  121 1   
   110  106  107 1   
   111  106  108 1   
   112  106  112 1   
   113  107  109 1   
   114  107  113 1   
   115  107  114 1   
   116  108  115 1   
   117  108  116 1   
   118  108  117 1   
   119  109  118 1   
   120  109  119 1   
   121  109  120 1   
   122  121  122 1   
   123  121  127 1   
   124  122  123 1   
   125  122  125 1   
   126  122  128 1   
   127  123  124 2   
   128  123  132 1   
   129  125  126 1   
   130  125  129 1   
   131  125  130 1   
   132  126  131 1   
   133  132  133 1   
   134  132  137 1   
   135  133  134 1   
   136  133  136 1   
   137  133  138 1   
   138  134  135 2   
   139  134  142 1   
   140  136  139 1   
   141  136  140 1   
   142  136  141 1   
   143  142  143 1   
   144  142  147 1   
   145  143  144 1   
   146  143  146 1   
   147  143  148 1   
   148  144  145 2   
   149  144  152 1   
   150  146  149 1   
   151  146  150 1   
   152  146  151 1   
   153  152  153 1   
   154  152  161 1   
   155  153  154 1   
   156  153  156 1   
   157  153  162 1   
   158  154  155 2   
   159  154  167 1   
   160  156  157 1   
   161  156  163 1   
   162  156  164 1   
   163  157  158 1   
   164  157  165 1   
   165  157  166 1   
   166  158  159 1   
   167  158  160 1   
   168  167  168 1   
   169  167  172 1   
   170  168  169 1   
   171  168  170 1   
   172  168  171 1   
   173  174  175 1   
   174  174  176 1   
   175  177  178 1   
   176  177  179 1   
   177  180  181 1   
   178  180  182 1   
   179  183  184 1   
   180  183  185 1   
@<TRIPOS>SUBSTRUCTURE
     1 MOL         1 TEMP              0 ****  ****    0 ROOT
