@<TRIPOS>MOLECULE
MOL
  189   185     1     0     0
SMALL
resp


@<TRIPOS>ATOM
      1 C1          4.6550    4.4770   -3.1120 c3        1 MOL     -0.413998
      2 C2          5.3370    3.5160   -2.0780 c         1 MOL      0.813662
      3 O1          4.8310    3.3310   -0.9590 o         1 MOL     -0.688488
      4 H1          5.0970    4.3240   -4.0960 hc        1 MOL      0.101291
      5 H2          3.5860    4.2630   -3.1570 hc        1 MOL      0.101291
      6 H3          4.8070    5.5110   -2.8030 hc        1 MOL      0.101291
      7 N1          6.5070    2.9590   -2.3660 n         1 MOL     -0.689158
      8 C3          7.1330    1.7550   -1.8000 c3        1 MOL      0.296582
      9 C4          6.0920    0.5970   -1.6810 c         1 MOL      0.313998
     10 O2          5.6460    0.3080   -0.5750 o         1 MOL     -0.468987
     11 C5          7.9770    2.0960   -0.5540 c3        1 MOL     -0.214847
     12 C6          7.3930    3.0790    0.4780 c         1 MOL      0.896436
     13 O3          6.6360    2.6720    1.3740 o         1 MOL     -0.774074
     14 O4          7.8180    4.2710    0.4190 o         1 MOL     -0.774074
     15 H4          6.9720    3.3730   -3.1710 hn        1 MOL      0.330899
     16 H5          7.7800    1.5070   -2.6370 h1        1 MOL      0.018117
     17 H6          8.9260    2.5570   -0.8420 hc        1 MOL      0.033990
     18 H7          8.1320    1.1730    0.0120 hc        1 MOL      0.033990
     19 N2          5.7150   -0.0030   -2.8270 n         1 MOL     -0.496073
     20 C7          4.9180   -1.1890   -3.0040 c3        1 MOL      0.030837
     21 C8          5.4350   -2.5130   -2.4280 c         1 MOL      0.398687
     22 O5          5.4460   -3.5760   -3.0990 o         1 MOL     -0.532132
     23 C9          3.4560   -0.9650   -2.6610 c3        1 MOL      0.205803
     24 C10         2.4020   -2.1330   -2.8790 c3        1 MOL      0.020141
     25 C11         2.9890    0.3580   -3.4240 c3        1 MOL     -0.372601
     26 C12         2.3290   -2.6430   -4.2590 c3        1 MOL     -0.229574
     27 H8          5.9180    0.4300   -3.7200 hn        1 MOL      0.310238
     28 H9          4.9280   -1.2800   -4.0930 h1        1 MOL      0.049197
     29 H10         3.5130   -0.8400   -1.5760 hc        1 MOL     -0.099158
     30 H11         1.4370   -1.7370   -2.5360 hc        1 MOL      0.091877
     31 H12         2.6330   -2.9660   -2.2210 hc        1 MOL      0.091877
     32 H13         1.9190    0.5260   -3.3210 hc        1 MOL      0.074284
     33 H14         3.5430    1.2180   -3.0290 hc        1 MOL      0.074284
     34 H15         3.1980    0.2830   -4.4980 hc        1 MOL      0.074284
     35 H16         1.7430   -3.5670   -4.2860 hc        1 MOL      0.034120
     36 H17         1.9150   -1.8920   -4.9380 hc        1 MOL      0.034120
     37 H18         3.3310   -2.9250   -4.5990 hc        1 MOL      0.034120
     38 N3          6.0050   -2.4030   -1.2090 n         1 MOL     -0.193428
     39 C13         6.7130   -3.4330   -0.4230 c3        1 MOL     -0.143042
     40 C14         5.9290   -4.7290   -0.1480 c         1 MOL      0.648513
     41 O6          6.3670   -5.8130   -0.4000 o         1 MOL     -0.587021
     42 C15         7.3030   -2.9100    0.8360 c3        1 MOL     -0.038121
     43 C16         8.3630   -1.8750    0.7370 c         1 MOL      0.646633
     44 O7          8.4560   -1.1280    1.7880 o         1 MOL     -0.710124
     45 O8          9.1410   -1.7920   -0.2390 o         1 MOL     -0.710124
     46 H19         5.8240   -1.5180   -0.7650 hn        1 MOL      0.353802
     47 H20         7.5670   -3.7310   -1.0340 h1        1 MOL      0.058959
     48 H21         7.7760   -3.7060    1.3970 hc        1 MOL      0.028988
     49 H22         6.5110   -2.4810    1.4560 hc        1 MOL      0.028988
     50 N4          4.6530   -4.6860    0.3260 n         1 MOL     -0.550563
     51 C17         3.6990   -3.6190    0.7560 c3        1 MOL      0.028630
     52 C18         2.6020   -4.2200    1.6920 c         1 MOL      0.765508
     53 O9          2.2440   -5.4030    1.5870 o         1 MOL     -0.615963
     54 H23         4.2730   -5.6200    0.3650 hn        1 MOL      0.286488
     55 H24         3.1990   -3.1000   -0.0620 h1        1 MOL      0.037828
     56 H25         4.1870   -2.7960    1.2820 h1        1 MOL      0.037828
     57 N5          1.9970   -3.4340    2.5570 n         1 MOL     -0.571442
     58 C19         2.2070   -2.0530    2.9380 c3        1 MOL      0.096840
     59 C20         2.2260   -1.0350    1.8370 c         1 MOL      0.523217
     60 O10         3.2780   -0.2970    1.5390 o         1 MOL     -0.572641
     61 C21         3.4330   -1.9030    3.8770 c3        1 MOL     -0.717764
     62 C22         3.3980   -3.0300    4.8830 c         1 MOL      0.879041
     63 O11         2.6180   -2.9620    5.8460 o         1 MOL     -0.737405
     64 O12         4.1720   -4.0040    4.8240 o         1 MOL     -0.737405
     65 H26         1.4520   -4.0090    3.1820 hn        1 MOL      0.313617
     66 H27         1.3500   -1.7210    3.5260 h1        1 MOL      0.138810
     67 H28         3.5810   -0.9190    4.3220 hc        1 MOL      0.203345
     68 H29         4.4230   -1.9800    3.4350 hc        1 MOL      0.203345
     69 N6          1.1350   -0.8310    1.0720 n         1 MOL     -0.422417
     70 C23        -0.1850   -1.4590    1.2550 c3        1 MOL     -0.022851
     71 C24        -0.3700   -2.7850    0.4530 c         1 MOL      0.488609
     72 O13         0.5040   -3.2710   -0.3380 o         1 MOL     -0.549275
     73 H30         1.3050   -0.1730    0.3310 hn        1 MOL      0.275465
     74 H31        -0.8910   -0.7350    0.8640 h1        1 MOL      0.074713
     75 H32        -0.4000   -1.6220    2.3160 h1        1 MOL      0.074713
     76 N7         -1.6200   -3.3110    0.5570 n         1 MOL     -0.354981
     77 C25        -2.0120   -4.4230   -0.2450 c3        1 MOL      0.084711
     78 C26        -2.7270   -3.9210   -1.5280 c         1 MOL      0.363355
     79 O14        -3.1030   -4.7980   -2.3150 o         1 MOL     -0.541550
     80 C27        -2.9030   -5.3360    0.6630 c3        1 MOL     -0.263295
     81 C28        -4.0570   -4.6370    1.4090 c3        1 MOL      0.035710
     82 C29        -5.1890   -4.1330    0.5890 c         1 MOL      0.529836
     83 N8         -6.0330   -4.9370    0.0600 n         1 MOL     -0.619400
     84 O15        -5.3350   -2.9350    0.3660 o         1 MOL     -0.607058
     85 H33        -2.2230   -2.8590    1.2250 hn        1 MOL      0.219927
     86 H34        -1.2190   -5.0190   -0.6960 h1        1 MOL      0.142473
     87 H35        -2.1670   -5.6460    1.4010 hc        1 MOL      0.087165
     88 H36        -3.3560   -6.0730    0.0120 hc        1 MOL      0.087165
     89 H37        -3.7360   -3.8050    2.0480 hc        1 MOL      0.030650
     90 H38        -4.4970   -5.3140    2.1470 hc        1 MOL      0.030650
     91 H39        -6.0590   -5.9280    0.2380 hn        1 MOL      0.330039
     92 H40        -6.7230   -4.5180   -0.5450 hn        1 MOL      0.330039
     93 N9         -3.0200   -2.6340   -1.8190 n         1 MOL      0.101759
     94 C30        -3.5220   -2.1640   -3.1100 c3        1 MOL     -0.432033
     95 C31        -4.9280   -1.5570   -3.0610 c         1 MOL      0.553236
     96 O16        -5.5690   -1.2980   -4.1360 o         1 MOL     -0.585771
     97 C32        -2.4710   -1.1810   -3.6990 c3        1 MOL      0.274354
     98 C33        -1.0270   -1.8590   -3.8980 c3        1 MOL     -0.191628
     99 C34        -2.2110    0.0590   -2.9070 c3        1 MOL     -0.191628
    100 H41        -2.8630   -1.9680   -1.0730 hn        1 MOL      0.110650
    101 H42        -3.4660   -2.9750   -3.8380 h1        1 MOL      0.184777
    102 H43        -2.7810   -0.8210   -4.6780 hc        1 MOL     -0.008098
    103 H44        -1.1560   -2.5580   -4.7250 hc        1 MOL      0.033864
    104 H45        -0.3910   -1.0220   -4.2070 hc        1 MOL      0.033864
    105 H46        -0.4900   -2.2480   -3.0360 hc        1 MOL      0.033864
    106 H47        -3.0690    0.7310   -2.8870 hc        1 MOL      0.033864
    107 H48        -1.9580   -0.3290   -1.9180 hc        1 MOL      0.033864
    108 H49        -1.3650    0.6240   -3.2840 hc        1 MOL      0.033864
    109 N10        -5.5810   -1.2320   -1.9300 n         1 MOL     -0.250868
    110 C35        -6.8180   -0.4970   -1.8360 c3        1 MOL      0.076012
    111 C36        -6.6840    0.7940   -1.0120 c         1 MOL      0.534645
    112 O17        -7.5090    1.6860   -1.3110 o         1 MOL     -0.581754
    113 C37        -7.8860   -1.4500   -1.1630 c3        1 MOL     -0.280963
    114 C38        -8.3640   -2.6660   -1.9740 c         1 MOL      0.525347
    115 N11        -8.7230   -2.4780   -3.2390 n         1 MOL     -0.660655
    116 O18        -8.2270   -3.8480   -1.5400 o         1 MOL     -0.551312
    117 H50        -5.1680   -1.6940   -1.1290 hn        1 MOL      0.237762
    118 H51        -7.2970   -0.2550   -2.7860 h1        1 MOL      0.063901
    119 H52        -8.7640   -0.8530   -0.9240 hc        1 MOL      0.121609
    120 H53        -7.4420   -1.8920   -0.2700 hc        1 MOL      0.121609
    121 H54        -8.5450   -1.5920   -3.6790 hn        1 MOL      0.344088
    122 H55        -9.2080   -3.2390   -3.6810 hn        1 MOL      0.344088
    123 N12        -5.7580    0.8800   -0.1640 n         1 MOL     -0.520301
    124 C39        -5.5370    2.0870    0.7140 c3        1 MOL      0.505110
    125 C40        -4.1550    2.7370    0.7990 c         1 MOL      0.299746
    126 O19        -3.1630    2.0810    0.3570 o         1 MOL     -0.502950
    127 C41        -5.9950    1.6740    2.0690 c3        1 MOL     -0.194259
    128 C42        -7.4040    1.1910    2.1630 ca        1 MOL      0.107511
    129 C43        -8.4650    2.1430    2.0370 ca        1 MOL     -0.189248
    130 C44        -7.6710   -0.1450    2.3320 ca        1 MOL     -0.189248
    131 C45        -9.8170    1.6040    2.1360 ca        1 MOL     -0.251718
    132 C46        -8.9510   -0.6620    2.4030 ca        1 MOL     -0.251718
    133 C47       -10.0340    0.2240    2.3800 ca        1 MOL      0.319936
    134 O20       -11.2280   -0.3420    2.5750 oh        1 MOL     -0.471784
    135 H56        -5.0780    0.1560   -0.0290 hn        1 MOL      0.229429
    136 H57        -6.2580    2.8560    0.4490 h1        1 MOL     -0.060597
    137 H58        -5.8210    2.4430    2.8270 hc        1 MOL      0.069482
    138 H59        -5.4520    0.7860    2.3930 hc        1 MOL      0.069482
    139 H60        -8.1970    3.1580    1.8150 ha        1 MOL      0.136767
    140 H61        -6.8620   -0.8630    2.2840 ha        1 MOL      0.136767
    141 H62       -10.6470    2.2780    1.9720 ha        1 MOL      0.125699
    142 H63        -9.1190   -1.7200    2.5130 ha        1 MOL      0.125699
    143 H64       -11.9290    0.2070    2.2000 ho        1 MOL      0.342802
    144 N13        -4.0550    3.9550    1.2880 n         1 MOL     -0.521761
    145 C48        -2.8800    4.7660    1.6560 c3        1 MOL      0.194658
    146 C49        -1.7750    5.0230    0.5920 c         1 MOL      0.169456
    147 O21        -1.1080    6.0450    0.7400 o         1 MOL     -0.487813
    148 C50        -2.3230    4.3220    3.0410 c3        1 MOL     -0.062106
    149 C51        -1.7990    2.8390    3.1390 c3        1 MOL     -0.243843
    150 C52        -1.4630    2.6440    4.6700 c         1 MOL      0.674989
    151 O22        -2.3210    2.5940    5.5540 o         1 MOL     -0.696804
    152 O23        -0.2770    2.4340    4.9760 o         1 MOL     -0.696804
    153 H65        -4.9480    4.3540    1.5490 hn        1 MOL      0.324127
    154 H66        -3.2990    5.7390    1.8740 h1        1 MOL      0.035182
    155 H67        -3.0080    4.6430    3.8300 hc        1 MOL      0.050227
    156 H68        -1.4100    4.9180    3.1250 hc        1 MOL      0.050227
    157 H69        -0.8980    2.6250    2.5700 hc        1 MOL      0.065879
    158 H70        -2.6200    2.1670    2.8690 hc        1 MOL      0.065879
    159 N14        -1.5930    4.2660   -0.4650 n         1 MOL     -0.002985
    160 C53        -0.5870    4.5090   -1.5090 c3        1 MOL     -0.145201
    161 C54        -1.0120    5.6530   -2.5770 c         1 MOL      0.426547
    162 O24        -0.2740    6.1890   -3.4560 o         1 MOL     -0.525205
    163 C55        -0.3530    3.1660   -2.1630 c3        1 MOL     -0.005777
    164 C56         0.0890    2.1130   -1.2270 c3        1 MOL      0.332022
    165 C57         1.4400    2.3350   -0.5640 c         1 MOL      0.725838
    166 O25         2.2900    1.4210   -0.5650 o         1 MOL     -0.746581
    167 O26         1.6920    3.2050    0.2570 o         1 MOL     -0.746581
    168 H71        -2.1150    3.4000   -0.4990 hn        1 MOL      0.153485
    169 H72         0.3900    4.7450   -1.1030 h1        1 MOL      0.128902
    170 H73         0.4730    3.3040   -2.8640 hc        1 MOL      0.004673
    171 H74        -1.1850    2.8310   -2.7730 hc        1 MOL      0.004673
    172 H75         0.1530    1.2120   -1.8350 hc        1 MOL     -0.096756
    173 H76        -0.5690    1.8990   -0.3750 hc        1 MOL     -0.096756
    174 N15        -2.3190    5.8440   -2.7010 n         1 MOL     -0.188866
    175 C58        -2.9440    6.5210   -3.8180 c3        1 MOL     -0.210483
    176 H77        -2.3550    6.3520   -4.7190 h1        1 MOL      0.089960
    177 H78        -3.9510    6.1310   -3.9620 h1        1 MOL      0.089960
    178 H79        -2.9930    7.5900   -3.6120 h1        1 MOL      0.089960
    179 H80        -2.9070    5.2400   -2.1410 hn        1 MOL      0.187838
    180 Ca1         4.0980    2.2780    1.1370 Ca        1 MOL      1.793239
    181 O27         2.1000    2.4110    2.8180 oh        1 MOL     -0.859334
    182 H81         1.6520    2.5600    1.9850 ho        1 MOL      0.413951
    183 H82         1.4870    2.7310    3.4880 ho        1 MOL      0.413951
    184 O28         4.5270    4.7020    1.7390 oh        1 MOL     -0.859334
    185 H83         4.0960    5.2200    2.4170 ho        1 MOL      0.413951
    186 H84         5.1900    5.2840    1.3670 ho        1 MOL      0.413951
    187 O29         4.4600    1.6280    3.6450 oh        1 MOL     -0.859334
    188 H85         4.9720    1.2450    4.3580 ho        1 MOL      0.413951
    189 H86         3.5620    1.6400    3.9750 ho        1 MOL      0.413951
@<TRIPOS>BOND
     1    1    2 1   
     2    1    4 1   
     3    1    5 1   
     4    1    6 1   
     5    2    3 2   
     6    2    7 1   
     7    7    8 1   
     8    7   15 1   
     9    8    9 1   
    10    8   11 1   
    11    8   16 1   
    12    9   10 2   
    13    9   19 1   
    14   11   12 1   
    15   11   17 1   
    16   11   18 1   
    17   12   13 1   
    18   12   14 1   
    19   19   20 1   
    20   19   27 1   
    21   20   21 1   
    22   20   23 1   
    23   20   28 1   
    24   21   22 2   
    25   21   38 1   
    26   23   24 1   
    27   23   25 1   
    28   23   29 1   
    29   24   26 1   
    30   24   30 1   
    31   24   31 1   
    32   25   32 1   
    33   25   33 1   
    34   25   34 1   
    35   26   35 1   
    36   26   36 1   
    37   26   37 1   
    38   38   39 1   
    39   38   46 1   
    40   39   40 1   
    41   39   42 1   
    42   39   47 1   
    43   40   41 2   
    44   40   50 1   
    45   42   43 1   
    46   42   48 1   
    47   42   49 1   
    48   43   44 1   
    49   43   45 1   
    50   50   51 1   
    51   50   54 1   
    52   51   52 1   
    53   51   55 1   
    54   51   56 1   
    55   52   53 2   
    56   52   57 1   
    57   57   58 1   
    58   57   65 1   
    59   58   59 1   
    60   58   61 1   
    61   58   66 1   
    62   59   60 2   
    63   59   69 1   
    64   61   62 1   
    65   61   67 1   
    66   61   68 1   
    67   62   63 1   
    68   62   64 1   
    69   69   70 1   
    70   69   73 1   
    71   70   71 1   
    72   70   74 1   
    73   70   75 1   
    74   71   72 2   
    75   71   76 1   
    76   76   77 1   
    77   76   85 1   
    78   77   78 1   
    79   77   80 1   
    80   77   86 1   
    81   78   79 2   
    82   78   93 1   
    83   80   81 1   
    84   80   87 1   
    85   80   88 1   
    86   81   82 1   
    87   81   89 1   
    88   81   90 1   
    89   82   83 1   
    90   82   84 2   
    91   83   91 1   
    92   83   92 1   
    93   93   94 1   
    94   93  100 1   
    95   94   95 1   
    96   94   97 1   
    97   94  101 1   
    98   95   96 2   
    99   95  109 1   
   100   97   98 1   
   101   97   99 1   
   102   97  102 1   
   103   98  103 1   
   104   98  104 1   
   105   98  105 1   
   106   99  106 1   
   107   99  107 1   
   108   99  108 1   
   109  109  110 1   
   110  109  117 1   
   111  110  111 1   
   112  110  113 1   
   113  110  118 1   
   114  111  112 2   
   115  111  123 1   
   116  113  114 1   
   117  113  119 1   
   118  113  120 1   
   119  114  115 1   
   120  114  116 2   
   121  115  121 1   
   122  115  122 1   
   123  123  124 1   
   124  123  135 1   
   125  124  125 1   
   126  124  127 1   
   127  124  136 1   
   128  125  126 2   
   129  125  144 1   
   130  127  128 1   
   131  127  137 1   
   132  127  138 1   
   133  128  129 ar  
   134  128  130 ar  
   135  129  131 ar  
   136  129  139 1   
   137  130  132 ar  
   138  130  140 1   
   139  131  133 ar  
   140  131  141 1   
   141  132  133 ar  
   142  132  142 1   
   143  133  134 1   
   144  134  143 1   
   145  144  145 1   
   146  144  153 1   
   147  145  146 1   
   148  145  148 1   
   149  145  154 1   
   150  146  147 2   
   151  146  159 1   
   152  148  149 1   
   153  148  155 1   
   154  148  156 1   
   155  149  150 1   
   156  149  157 1   
   157  149  158 1   
   158  150  151 1   
   159  150  152 1   
   160  159  160 1   
   161  159  168 1   
   162  160  161 1   
   163  160  163 1   
   164  160  169 1   
   165  161  162 2   
   166  161  174 1   
   167  163  164 1   
   168  163  170 1   
   169  163  171 1   
   170  164  165 1   
   171  164  172 1   
   172  164  173 1   
   173  165  166 1   
   174  165  167 1   
   175  174  175 1   
   176  174  179 1   
   177  175  176 1   
   178  175  177 1   
   179  175  178 1   
   180  181  182 1   
   181  181  183 1   
   182  184  185 1   
   183  184  186 1   
   184  187  188 1   
   185  187  189 1   
@<TRIPOS>SUBSTRUCTURE
     1 MOL         1 TEMP              0 ****  ****    0 ROOT
