@<TRIPOS>MOLECULE
MOL
  192   187     1     0     0
SMALL
resp


@<TRIPOS>ATOM
      1 C1          1.2830   -3.7800    3.6030 c3        1 MOL     -0.391020
      2 C2          1.6830   -3.6900    2.1140 c         1 MOL      0.517037
      3 O1          2.3500   -2.6690    1.7880 o         1 MOL     -0.467743
      4 H1          0.3190   -4.2810    3.6900 hc        1 MOL      0.109193
      5 H2          2.0370   -4.3490    4.1470 hc        1 MOL      0.109193
      6 H3          1.2100   -2.7770    4.0220 hc        1 MOL      0.109193
      7 N1          1.5030   -4.8130    1.3250 n         1 MOL     -0.352800
      8 C3          1.8920   -4.9200   -0.0780 c3        1 MOL     -0.307333
      9 C4          3.3770   -4.6440   -0.4380 c         1 MOL      0.823944
     10 O2          3.6980   -3.9330   -1.3980 o         1 MOL     -0.564428
     11 C5          0.9620   -4.0230   -1.0130 c3        1 MOL     -0.249407
     12 C6         -0.4800   -4.2560   -0.7450 c         1 MOL      0.723636
     13 O3         -1.0860   -5.1020   -1.5020 o         1 MOL     -0.745982
     14 O4         -1.0740   -3.7800    0.2590 o         1 MOL     -0.745982
     15 H4          0.9430   -5.5420    1.7480 hn        1 MOL      0.261127
     16 H5          1.6400   -5.9480   -0.3430 h1        1 MOL      0.145917
     17 H6          1.0830   -4.2390   -2.0750 hc        1 MOL      0.137358
     18 H7          1.0790   -2.9490   -0.8670 hc        1 MOL      0.137358
     19 N2          4.3540   -5.0280    0.4660 n         1 MOL     -0.718059
     20 C7          5.7750   -4.5880    0.5210 c3        1 MOL     -0.035746
     21 C8          6.6200   -5.2340   -0.6200 c         1 MOL      0.491050
     22 O5          6.3560   -6.3530   -1.0550 o         1 MOL     -0.560863
     23 C9          6.4470   -4.8740    1.8490 c3        1 MOL      0.051682
     24 C10         6.3150   -6.3780    2.3720 c3        1 MOL      0.092460
     25 C11         5.9110   -3.8180    2.7220 c3        1 MOL     -0.095206
     26 C12         6.6660   -6.5520    3.8360 c3        1 MOL     -0.221355
     27 H8          3.9590   -5.5700    1.2230 hn        1 MOL      0.340095
     28 H9          5.6270   -3.5250    0.3060 h1        1 MOL      0.192862
     29 H10         7.4950   -4.6050    1.7010 hc        1 MOL      0.073603
     30 H11         6.9950   -7.0090    1.7940 hc        1 MOL      0.002767
     31 H12         5.3060   -6.7740    2.2890 hc        1 MOL      0.002767
     32 H13         4.8270   -3.9010    2.8000 hc        1 MOL      0.028006
     33 H14         6.2750   -3.8580    3.7450 hc        1 MOL      0.028006
     34 H15         6.2590   -2.8260    2.4310 hc        1 MOL      0.028006
     35 H16         6.0440   -5.9910    4.5520 hc        1 MOL      0.040039
     36 H17         6.8130   -7.5970    4.0980 hc        1 MOL      0.040039
     37 H18         7.6300   -6.0510    3.9560 hc        1 MOL      0.040039
     38 N3          7.7650   -4.6440   -1.0290 n         1 MOL     -0.423986
     39 C13         8.3830   -3.3960   -0.5470 c3        1 MOL      0.038204
     40 C14         7.5480   -2.1830   -0.7220 c         1 MOL      0.648815
     41 O6          7.1390   -1.5010    0.2570 o         1 MOL     -0.557864
     42 C15         9.7550   -3.1820   -1.1750 c3        1 MOL     -0.315049
     43 C16        10.3910   -1.8430   -1.0100 c         1 MOL      0.710002
     44 O7         10.7390   -1.4970    0.1620 o         1 MOL     -0.711182
     45 O8         10.5420   -1.0750   -2.0050 o         1 MOL     -0.711182
     46 H19         8.2930   -5.2370   -1.6510 hn        1 MOL      0.274880
     47 H20         8.5750   -3.4850    0.5290 h1        1 MOL      0.032547
     48 H21         9.5400   -3.3050   -2.2290 hc        1 MOL      0.047842
     49 H22        10.4410   -3.9460   -0.7980 hc        1 MOL      0.047842
     50 N4          7.0320   -2.0260   -1.9370 n         1 MOL     -0.374097
     51 C17         5.8560   -1.3360   -2.2770 c3        1 MOL     -0.210318
     52 C18         6.0590    0.1640   -2.5940 c         1 MOL      0.560812
     53 O9          7.1510    0.5490   -2.9200 o         1 MOL     -0.471117
     54 H23         7.3740   -2.6220   -2.6800 hn        1 MOL      0.285715
     55 H24         5.1480   -1.5260   -1.4810 h1        1 MOL      0.118806
     56 H25         5.4900   -1.8950   -3.1430 h1        1 MOL      0.118806
     57 N5          4.9260    0.9110   -2.6010 n         1 MOL     -0.436095
     58 C19         4.9600    2.2930   -2.9570 c3        1 MOL      0.035214
     59 C20         5.4700    3.1750   -1.8030 c         1 MOL      0.397794
     60 O10         5.9290    4.3040   -2.0370 o         1 MOL     -0.534581
     61 C21         3.7240    2.7900   -3.6640 c3        1 MOL     -0.179023
     62 C22         2.4190    2.4940   -2.8080 c         1 MOL      0.802235
     63 O11         1.5600    1.7120   -3.3390 o         1 MOL     -0.735372
     64 O12         2.2110    3.1260   -1.7450 o         1 MOL     -0.735372
     65 H26         4.0410    0.4240   -2.4700 hn        1 MOL      0.236551
     66 H27         5.7520    2.4930   -3.6840 h1        1 MOL      0.076530
     67 H28         3.5330    2.3960   -4.6680 hc        1 MOL      0.025445
     68 H29         3.7370    3.8770   -3.6310 hc        1 MOL      0.025445
     69 N6          5.4470    2.7180   -0.5500 n         1 MOL     -0.105889
     70 C23         5.9050    3.4800    0.5940 c3        1 MOL     -0.336582
     71 C24         5.0580    4.7100    1.0370 c         1 MOL      0.459544
     72 O13         5.4070    5.4150    1.9770 o         1 MOL     -0.552481
     73 H30         5.1670    1.7580   -0.4330 hn        1 MOL      0.197358
     74 H31         6.9310    3.8430    0.4440 h1        1 MOL      0.156092
     75 H32         5.8960    2.7790    1.4320 h1        1 MOL      0.156092
     76 N7          4.0020    5.0160    0.2440 n         1 MOL      0.019161
     77 C25         2.9980    6.1020    0.3430 c3        1 MOL     -0.018113
     78 C26         2.2220    6.1070    1.6370 c         1 MOL      0.278736
     79 O14         1.7700    7.2220    2.1080 o         1 MOL     -0.502151
     80 C27         3.5930    7.4860   -0.2190 c3        1 MOL      0.021529
     81 C28         4.1050    7.4370   -1.6620 c3        1 MOL     -0.052172
     82 C29         4.7400    8.6850   -2.1850 c         1 MOL      0.568222
     83 N8          5.7640    8.5520   -2.8990 n         1 MOL     -0.659432
     84 O15         4.1860    9.7900   -2.0230 o         1 MOL     -0.600247
     85 H33         3.7240    4.3890   -0.4890 hn        1 MOL      0.019478
     86 H34         2.3230    5.8310   -0.4690 h1        1 MOL      0.129497
     87 H35         4.4540    7.8780    0.3030 hc        1 MOL      0.021050
     88 H36         2.8590    8.2920   -0.1120 hc        1 MOL      0.021050
     89 H37         3.3000    7.2010   -2.3550 hc        1 MOL      0.023996
     90 H38         4.8580    6.6540   -1.6200 hc        1 MOL      0.023996
     91 H39         6.0530    7.6280   -3.2020 hn        1 MOL      0.320141
     92 H40         6.0120    9.3580   -3.4510 hn        1 MOL      0.320141
     93 N9          2.1340    4.9460    2.3050 n         1 MOL     -0.152858
     94 C30         1.5030    4.7600    3.5940 c3        1 MOL     -0.083865
     95 C31         0.3420    3.6480    3.6250 c         1 MOL      0.559603
     96 O16         0.0220    3.2430    4.7200 o         1 MOL     -0.574359
     97 C32         2.5770    4.3780    4.6800 c3        1 MOL      0.353255
     98 C33         3.3360    3.0430    4.4580 c3        1 MOL     -0.260343
     99 C34         3.6140    5.5160    5.0070 c3        1 MOL     -0.260343
    100 H41         2.6270    4.1630    1.9040 hn        1 MOL      0.192218
    101 H42         1.0620    5.6630    4.0060 h1        1 MOL      0.070125
    102 H43         2.0630    4.3560    5.6400 hc        1 MOL     -0.057870
    103 H44         4.1820    3.2450    3.7950 hc        1 MOL      0.049834
    104 H45         3.6550    2.6850    5.4370 hc        1 MOL      0.049834
    105 H46         2.7470    2.3110    3.8960 hc        1 MOL      0.049834
    106 H47         4.4160    5.1270    5.6390 hc        1 MOL      0.049834
    107 H48         4.1160    5.8840    4.1080 hc        1 MOL      0.049834
    108 H49         3.1910    6.3510    5.5550 hc        1 MOL      0.049834
    109 N10        -0.1090    3.2130    2.4930 n         1 MOL     -0.460776
    110 C35        -1.1030    2.1540    2.3360 c3        1 MOL      0.138260
    111 C36        -1.8980    2.2640    0.9440 c         1 MOL      0.517524
    112 O17        -1.4220    2.8970   -0.0160 o         1 MOL     -0.462984
    113 C37        -0.4000    0.7790    2.5580 c3        1 MOL     -0.173206
    114 C38        -1.1880   -0.4820    2.1910 c         1 MOL      0.470526
    115 N11        -0.5800   -1.2830    1.4450 n         1 MOL     -0.473870
    116 O18        -2.3100   -0.6880    2.5910 o         1 MOL     -0.555507
    117 H50         0.3640    3.4760    1.6470 hn        1 MOL      0.234106
    118 H51        -1.7960    2.2620    3.1780 h1        1 MOL      0.070189
    119 H52        -0.0170    0.6080    3.5630 hc        1 MOL      0.081928
    120 H53         0.5100    0.7480    1.9460 hc        1 MOL      0.081928
    121 H54         0.3600   -1.0970    1.1070 hn        1 MOL      0.282949
    122 H55        -1.1300   -2.0970    1.2330 hn        1 MOL      0.282949
    123 N12        -3.1150    1.6710    0.9340 n         1 MOL     -0.584426
    124 C39        -4.0490    1.4740   -0.2070 c3        1 MOL      0.339881
    125 C40        -5.4870    1.5640    0.2100 c         1 MOL      0.557839
    126 O19        -5.8520    1.0640    1.2770 o         1 MOL     -0.586759
    127 C41        -3.7640    0.1390   -0.9240 c3        1 MOL     -0.087692
    128 C42        -4.3520   -0.1200   -2.2770 ca        1 MOL     -0.015700
    129 C43        -5.5880   -0.8090   -2.3920 ca        1 MOL     -0.058845
    130 C44        -3.7280    0.3240   -3.4850 ca        1 MOL     -0.058845
    131 C45        -6.2130   -0.9050   -3.6100 ca        1 MOL     -0.347471
    132 C46        -4.3530    0.1770   -4.7060 ca        1 MOL     -0.347471
    133 C47        -5.6370   -0.3630   -4.7930 ca        1 MOL      0.386941
    134 O20        -6.2970   -0.4040   -5.9790 oh        1 MOL     -0.502992
    135 H56        -3.4110    1.1940    1.7830 hn        1 MOL      0.258232
    136 H57        -3.8270    2.2350   -0.9450 h1        1 MOL     -0.015011
    137 H58        -3.9790   -0.7340   -0.3120 hc        1 MOL      0.047905
    138 H59        -2.6980    0.1140   -1.1010 hc        1 MOL      0.047905
    139 H60        -6.0760   -1.2610   -1.5300 ha        1 MOL      0.149809
    140 H61        -2.8030    0.8920   -3.4550 ha        1 MOL      0.149809
    141 H62        -7.2430   -1.2160   -3.7400 ha        1 MOL      0.162776
    142 H63        -3.9370    0.5640   -5.6240 ha        1 MOL      0.162776
    143 H64        -7.0540   -0.9910   -5.8780 ho        1 MOL      0.358785
    144 N13        -6.3870    1.8310   -0.7730 n         1 MOL     -0.726759
    145 C48        -7.8260    1.8510   -0.5220 c3        1 MOL      0.435545
    146 C49        -8.6620    0.9860   -1.4180 c         1 MOL      0.576369
    147 O21        -9.0720    1.3830   -2.4950 o         1 MOL     -0.549472
    148 C50        -8.4080    3.3020   -0.5370 c3        1 MOL     -0.075150
    149 C51        -9.8050    3.2710    0.1870 c3        1 MOL     -0.201183
    150 C52       -10.3090    4.6700    0.3640 c         1 MOL      0.708503
    151 O22       -10.1150    5.5700   -0.5100 o         1 MOL     -0.705985
    152 O23       -11.0750    4.9190    1.3100 o         1 MOL     -0.705985
    153 H65        -6.0370    2.1120   -1.6740 hn        1 MOL      0.328505
    154 H66        -8.0500    1.5540    0.4970 h1        1 MOL     -0.007029
    155 H67        -8.5260    3.7470   -1.5230 hc        1 MOL      0.020365
    156 H68        -7.6990    3.9320    0.0050 hc        1 MOL      0.020365
    157 H69        -9.7550    2.8440    1.1910 hc        1 MOL      0.046327
    158 H70       -10.5520    2.7330   -0.3860 hc        1 MOL      0.046327
    159 N14        -8.8690   -0.3020   -1.0020 n         1 MOL     -0.704690
    160 C53        -8.2030   -1.0670    0.1060 c3        1 MOL     -0.011977
    161 C54        -8.7980   -0.6320    1.4670 c         1 MOL      0.517179
    162 O24        -9.9990   -0.4170    1.6480 o         1 MOL     -0.558112
    163 C55        -8.5400   -2.5250   -0.2040 c3        1 MOL      0.022982
    164 C56        -7.6200   -3.5490    0.4680 c3        1 MOL     -0.167583
    165 C57        -6.1640   -3.6180   -0.1150 c         1 MOL      0.799439
    166 O25        -5.8700   -4.4850   -0.9630 o         1 MOL     -0.785936
    167 O26        -5.3460   -2.7870    0.2690 o         1 MOL     -0.785936
    168 H71        -9.5860   -0.8260   -1.4720 hn        1 MOL      0.337272
    169 H72        -7.1480   -0.8190    0.1510 h1        1 MOL      0.156235
    170 H73        -8.2100   -2.6540   -1.2320 hc        1 MOL      0.022299
    171 H74        -9.5920   -2.7120    0.0300 hc        1 MOL      0.022299
    172 H75        -7.9930   -4.5670    0.4190 hc        1 MOL      0.001156
    173 H76        -7.5630   -3.2410    1.5080 hc        1 MOL      0.001156
    174 N15        -7.9110   -0.5780    2.4110 n         1 MOL     -0.159327
    175 C58        -8.1410   -0.5890    3.8870 c3        1 MOL     -0.286514
    176 H77        -9.0890   -1.0820    4.1030 h1        1 MOL      0.109605
    177 H78        -7.3310   -1.1290    4.3780 h1        1 MOL      0.109605
    178 H79        -8.1730    0.4350    4.2590 h1        1 MOL      0.109605
    179 H80        -6.9520   -0.7320    2.1470 hn        1 MOL      0.258341
    180 Ca1        -3.3830   -4.9650   -0.1430 Ca        1 MOL      1.698271
    181 O27        -3.6660   -6.7170   -2.1220 oh        1 MOL     -0.823612
    182 H81        -3.4510   -6.5700   -3.0430 ho        1 MOL      0.396949
    183 H82        -3.8240   -7.6680   -2.0590 ho        1 MOL      0.396949
    184 O28        -3.7250   -4.0870    2.7510 oh        1 MOL     -0.823612
    185 H83        -3.0770   -4.1280    3.4540 ho        1 MOL      0.396949
    186 H84        -3.9950   -3.1730    2.7310 ho        1 MOL      0.396949
    187 O29        -3.5720   -3.0790   -2.0170 oh        1 MOL     -0.823612
    188 H85        -3.2830   -2.7380   -2.8590 ho        1 MOL      0.396949
    189 H86        -4.3290   -2.5420   -1.7870 ho        1 MOL      0.396949
    190 O30        -4.6640   -6.9610    1.0890 oh        1 MOL     -0.823612
    191 H87        -4.7940   -7.7550    0.5780 ho        1 MOL      0.396949
    192 H88        -5.3590   -6.9720    1.7520 ho        1 MOL      0.396949
@<TRIPOS>BOND
     1    1    2 1   
     2    1    4 1   
     3    1    5 1   
     4    1    6 1   
     5    2    3 2   
     6    2    7 1   
     7    7    8 1   
     8    7   15 1   
     9    8    9 1   
    10    8   11 1   
    11    8   16 1   
    12    9   10 2   
    13    9   19 1   
    14   11   12 1   
    15   11   17 1   
    16   11   18 1   
    17   12   13 1   
    18   12   14 1   
    19   19   20 1   
    20   19   27 1   
    21   20   21 1   
    22   20   23 1   
    23   20   28 1   
    24   21   22 2   
    25   21   38 1   
    26   23   24 1   
    27   23   25 1   
    28   23   29 1   
    29   24   26 1   
    30   24   30 1   
    31   24   31 1   
    32   25   32 1   
    33   25   33 1   
    34   25   34 1   
    35   26   35 1   
    36   26   36 1   
    37   26   37 1   
    38   38   39 1   
    39   38   46 1   
    40   39   40 1   
    41   39   42 1   
    42   39   47 1   
    43   40   41 2   
    44   40   50 1   
    45   42   43 1   
    46   42   48 1   
    47   42   49 1   
    48   43   44 1   
    49   43   45 1   
    50   50   51 1   
    51   50   54 1   
    52   51   52 1   
    53   51   55 1   
    54   51   56 1   
    55   52   53 2   
    56   52   57 1   
    57   57   58 1   
    58   57   65 1   
    59   58   59 1   
    60   58   61 1   
    61   58   66 1   
    62   59   60 2   
    63   59   69 1   
    64   61   62 1   
    65   61   67 1   
    66   61   68 1   
    67   62   63 1   
    68   62   64 1   
    69   69   70 1   
    70   69   73 1   
    71   70   71 1   
    72   70   74 1   
    73   70   75 1   
    74   71   72 2   
    75   71   76 1   
    76   76   77 1   
    77   76   85 1   
    78   77   78 1   
    79   77   80 1   
    80   77   86 1   
    81   78   79 2   
    82   78   93 1   
    83   80   81 1   
    84   80   87 1   
    85   80   88 1   
    86   81   82 1   
    87   81   89 1   
    88   81   90 1   
    89   82   83 1   
    90   82   84 2   
    91   83   91 1   
    92   83   92 1   
    93   93   94 1   
    94   93  100 1   
    95   94   95 1   
    96   94   97 1   
    97   94  101 1   
    98   95   96 2   
    99   95  109 1   
   100   97   98 1   
   101   97   99 1   
   102   97  102 1   
   103   98  103 1   
   104   98  104 1   
   105   98  105 1   
   106   99  106 1   
   107   99  107 1   
   108   99  108 1   
   109  109  110 1   
   110  109  117 1   
   111  110  111 1   
   112  110  113 1   
   113  110  118 1   
   114  111  112 2   
   115  111  123 1   
   116  113  114 1   
   117  113  119 1   
   118  113  120 1   
   119  114  115 1   
   120  114  116 2   
   121  115  121 1   
   122  115  122 1   
   123  123  124 1   
   124  123  135 1   
   125  124  125 1   
   126  124  127 1   
   127  124  136 1   
   128  125  126 2   
   129  125  144 1   
   130  127  128 1   
   131  127  137 1   
   132  127  138 1   
   133  128  129 ar  
   134  128  130 ar  
   135  129  131 ar  
   136  129  139 1   
   137  130  132 ar  
   138  130  140 1   
   139  131  133 ar  
   140  131  141 1   
   141  132  133 ar  
   142  132  142 1   
   143  133  134 1   
   144  134  143 1   
   145  144  145 1   
   146  144  153 1   
   147  145  146 1   
   148  145  148 1   
   149  145  154 1   
   150  146  147 2   
   151  146  159 1   
   152  148  149 1   
   153  148  155 1   
   154  148  156 1   
   155  149  150 1   
   156  149  157 1   
   157  149  158 1   
   158  150  151 1   
   159  150  152 1   
   160  159  160 1   
   161  159  168 1   
   162  160  161 1   
   163  160  163 1   
   164  160  169 1   
   165  161  162 2   
   166  161  174 1   
   167  163  164 1   
   168  163  170 1   
   169  163  171 1   
   170  164  165 1   
   171  164  172 1   
   172  164  173 1   
   173  165  166 1   
   174  165  167 1   
   175  174  175 1   
   176  174  179 1   
   177  175  176 1   
   178  175  177 1   
   179  175  178 1   
   180  181  182 1   
   181  181  183 1   
   182  184  185 1   
   183  184  186 1   
   184  187  188 1   
   185  187  189 1   
   186  190  191 1   
   187  190  192 1   
@<TRIPOS>SUBSTRUCTURE
     1 MOL         1 TEMP              0 ****  ****    0 ROOT
