@<TRIPOS>MOLECULE
MOL
  181   177     1     0     0
SMALL
resp


@<TRIPOS>ATOM
      1 C1         10.8800   -6.9460   -0.0840 c3        1 MOL     -0.402087
      2 C2         11.2380   -5.5810   -0.7190 c         1 MOL      0.853774
      3 O1         11.6520   -5.5470   -1.8220 o         1 MOL     -0.612989
      4 H1         11.7910   -7.4360    0.2610 hc        1 MOL      0.099819
      5 H2         10.2090   -6.7900    0.7600 hc        1 MOL      0.099819
      6 H3         10.3900   -7.5760   -0.8280 hc        1 MOL      0.099819
      7 N1         11.2830   -4.4770    0.0620 n         1 MOL     -0.869723
      8 C3         10.7640   -4.4200    1.4200 c3        1 MOL      0.404166
      9 C4         11.4540   -3.3730    2.3090 c         1 MOL      0.339434
     10 O2         11.4450   -3.4950    3.5640 o         1 MOL     -0.542641
     11 C5          9.2660   -4.2080    1.5000 c3        1 MOL     -0.388110
     12 C6          8.7950   -3.0180    0.6130 c         1 MOL      0.902818
     13 O3          7.6030   -2.9390    0.2790 o         1 MOL     -0.777354
     14 O4          9.5770   -2.0980    0.1380 o         1 MOL     -0.777354
     15 H4         11.6000   -3.6410   -0.4020 hn        1 MOL      0.416079
     16 H5         10.9720   -5.3530    1.9450 h1        1 MOL      0.016205
     17 H6          8.9200   -4.1160    2.5220 hc        1 MOL      0.094987
     18 H7          8.8250   -5.0630    0.9720 hc        1 MOL      0.094987
     19 N2         12.1060   -2.3480    1.7570 n         1 MOL     -0.329002
     20 C7         12.7690   -1.2370    2.4070 c3        1 MOL      0.316087
     21 C8         12.0600    0.1310    2.2750 c         1 MOL      0.306194
     22 O5         12.5790    1.1520    2.7030 o         1 MOL     -0.501500
     23 C9         14.1840   -1.0650    1.8830 c3        1 MOL     -0.376530
     24 H8         12.2150   -2.3830    0.7540 hn        1 MOL      0.229053
     25 H9         12.8010   -1.4720    3.4680 h1        1 MOL      0.045265
     26 H10        14.6380   -0.4030    2.6250 hc        1 MOL      0.099646
     27 H11        14.7170   -2.0140    1.8980 hc        1 MOL      0.099646
     28 H12        14.2620   -0.5040    0.9520 hc        1 MOL      0.099646
     29 N3         10.8220    0.2050    1.6440 n         1 MOL     -0.170403
     30 C10        10.1180    1.4410    1.3500 c3        1 MOL     -0.297453
     31 C11         8.6170    1.3460    1.4580 c         1 MOL      0.507842
     32 O6          8.0020    0.3550    1.0040 o         1 MOL     -0.575285
     33 C12        10.5370    1.9890   -0.0630 c3        1 MOL      0.299318
     34 C13        10.3050    1.1030   -1.2700 c         1 MOL      0.591664
     35 O7          9.1400    1.0010   -1.7110 o         1 MOL     -0.714218
     36 O8         11.2380    0.5310   -1.8590 o         1 MOL     -0.714218
     37 H13        10.4590   -0.6750    1.3020 hn        1 MOL      0.187030
     38 H14        10.4510    2.1360    2.1280 h1        1 MOL      0.101784
     39 H15        11.5740    2.3130   -0.0450 hc        1 MOL     -0.056594
     40 H16        10.0570    2.9620   -0.1490 hc        1 MOL     -0.056594
     41 N4          7.9660    2.2910    2.1060 n         1 MOL     -0.203562
     42 C14         6.5030    2.2890    2.4230 c3        1 MOL     -0.338341
     43 C15         5.7760    3.1140    1.3670 c         1 MOL      0.731488
     44 O9          6.3100    4.1080    0.9410 o         1 MOL     -0.589607
     45 H17         8.4700    3.0490    2.5610 hn        1 MOL      0.256618
     46 H18         6.2890    2.6510    3.4350 h1        1 MOL      0.153619
     47 H19         6.1970    1.2490    2.3140 h1        1 MOL      0.153619
     48 N5          4.6340    2.6710    0.8700 n         1 MOL     -0.578553
     49 C16         3.8240    3.2430   -0.2870 c3        1 MOL      0.075482
     50 C17         2.3770    3.3170    0.0290 c         1 MOL      0.518345
     51 O10         1.8690    2.5300    0.8580 o         1 MOL     -0.500691
     52 C18         4.1080    2.3600   -1.5460 c3        1 MOL     -0.058950
     53 C19         5.5790    2.3680   -1.9130 c         1 MOL      0.496203
     54 N6          6.1750    3.4980   -2.0980 n         1 MOL     -0.530589
     55 O11         6.2580    1.3420   -1.8470 o         1 MOL     -0.626047
     56 H20         4.2300    1.8740    1.3350 hn        1 MOL      0.310499
     57 H21         4.0970    4.2610   -0.5500 h1        1 MOL      0.061473
     58 H22         3.5680    2.7230   -2.4190 hc        1 MOL      0.058676
     59 H23         3.8260    1.3080   -1.5250 hc        1 MOL      0.058676
     60 H24         5.6300    4.3240   -2.2860 hn        1 MOL      0.307828
     61 H25         7.1380    3.3640   -2.3950 hn        1 MOL      0.307828
     62 N7          1.6670    4.2530   -0.6170 n         1 MOL     -0.471818
     63 C20         0.1860    4.0720   -0.6060 c3        1 MOL     -0.013584
     64 C21        -0.5650    5.0490   -1.5900 c         1 MOL      0.479064
     65 O12        -0.0900    5.3520   -2.6920 o         1 MOL     -0.576960
     66 H26         2.0100    5.0400   -1.1380 hn        1 MOL      0.293653
     67 H27        -0.0910    4.3100    0.4290 h1        1 MOL      0.128040
     68 H28        -0.1810    3.0660   -0.7750 h1        1 MOL      0.128040
     69 N8         -1.7060    5.6350   -1.2970 n         1 MOL     -0.288741
     70 C22        -2.2510    5.7660    0.0630 c3        1 MOL     -0.259616
     71 C23        -3.4400    4.8330    0.3930 c         1 MOL      0.695126
     72 O13        -3.8580    4.7100    1.5430 o         1 MOL     -0.546138
     73 C24        -2.7000    7.2070    0.2460 c3        1 MOL      0.290640
     74 C25        -1.7190    8.3430   -0.0620 c3        1 MOL     -0.238787
     75 O14        -3.7510    7.5240   -0.6260 oh        1 MOL     -0.607067
     76 H29        -2.1420    6.1270   -2.0620 hn        1 MOL      0.307439
     77 H30        -1.4830    5.6680    0.8290 h1        1 MOL      0.150248
     78 H31        -3.0500    7.3960    1.2670 h1        1 MOL      0.021646
     79 H32        -3.8260    8.4690   -0.5170 ho        1 MOL      0.392181
     80 H33        -1.5080    8.3970   -1.1310 hc        1 MOL      0.055714
     81 H34        -2.0860    9.3610    0.1000 hc        1 MOL      0.055714
     82 H35        -0.7930    8.2870    0.5150 hc        1 MOL      0.055714
     83 N9         -3.9720    4.0620   -0.5950 n         1 MOL     -0.602467
     84 C26        -5.0470    3.1140   -0.3740 c3        1 MOL      0.052113
     85 C27        -4.4580    1.8130    0.1830 c         1 MOL      0.572875
     86 O15        -3.3770    1.4260   -0.1110 o         1 MOL     -0.534521
     87 C28        -5.6700    2.9250   -1.7790 c3        1 MOL      0.170159
     88 C29        -6.4610    4.2680   -2.1540 c3        1 MOL      0.081089
     89 C30        -6.6500    1.7410   -1.8550 c3        1 MOL     -0.125077
     90 C31        -7.1830    4.3570   -3.5000 c3        1 MOL     -0.242061
     91 H36        -3.7570    4.2710   -1.5690 hn        1 MOL      0.268265
     92 H37        -5.8170    3.5680    0.2540 h1        1 MOL      0.070979
     93 H38        -4.8700    2.7450   -2.5100 hc        1 MOL      0.033481
     94 H39        -5.8230    5.1480   -2.1000 hc        1 MOL     -0.022437
     95 H40        -7.1740    4.4140   -1.3490 hc        1 MOL     -0.022437
     96 H41        -6.8910    1.5820   -2.9010 hc        1 MOL      0.022519
     97 H42        -6.2000    0.8560   -1.4130 hc        1 MOL      0.022519
     98 H43        -7.5530    1.9520   -1.2710 hc        1 MOL      0.022519
     99 H44        -6.4840    3.9830   -4.2480 hc        1 MOL      0.049795
    100 H45        -8.0800    3.7280   -3.5580 hc        1 MOL      0.049795
    101 H46        -7.3860    5.3950   -3.7990 hc        1 MOL      0.049795
    102 N10        -5.1840    1.0850    0.9690 n         1 MOL     -0.396191
    103 C32        -6.4310    1.3870    1.6260 c3        1 MOL      0.061319
    104 C33        -7.3200    0.1770    1.7330 c         1 MOL      0.498498
    105 O16        -6.7780   -0.9520    1.7480 o         1 MOL     -0.468318
    106 C34        -6.2570    1.9280    2.9940 c3        1 MOL     -0.215154
    107 C35        -5.3400    1.0730    3.8020 c         1 MOL      0.690091
    108 O17        -4.0520    1.3000    3.8550 o         1 MOL     -0.701600
    109 O18        -5.7770    0.1690    4.5630 o         1 MOL     -0.701600
    110 H47        -4.6270    0.2730    1.1920 hn        1 MOL      0.311081
    111 H48        -7.1130    2.0370    1.0800 h1        1 MOL      0.021485
    112 H49        -7.1950    1.9690    3.5540 hc        1 MOL      0.030553
    113 H50        -5.8990    2.9570    2.9350 hc        1 MOL      0.030553
    114 N11        -8.6120    0.4270    1.7100 n         1 MOL     -0.527808
    115 C36        -9.6870   -0.6100    1.6200 c3        1 MOL      0.327647
    116 C37       -10.4200   -0.4310    0.2760 c         1 MOL      0.220683
    117 O19       -10.7120    0.7460    0.0080 o         1 MOL     -0.487004
    118 C38       -10.7300   -0.4490    2.7470 c3        1 MOL     -0.140190
    119 C39       -11.8120   -1.5010    2.8090 ca        1 MOL      0.098186
    120 C40       -11.5540   -2.7050    3.5560 ca        1 MOL     -0.222141
    121 C41       -13.1080   -1.3540    2.2470 ca        1 MOL     -0.222141
    122 C42       -12.4620   -3.7180    3.6270 ca        1 MOL     -0.047698
    123 C43       -14.0630   -2.3790    2.4820 ca        1 MOL     -0.047698
    124 C44       -13.7030   -3.5380    3.1460 ca        1 MOL     -0.153717
    125 H51        -8.9230    1.3880    1.5980 hn        1 MOL      0.304348
    126 H52        -9.2020   -1.5820    1.6260 h1        1 MOL      0.005284
    127 H53       -11.1610    0.5450    2.6260 hc        1 MOL      0.063062
    128 H54       -10.2590   -0.4710    3.7220 hc        1 MOL      0.063062
    129 H55       -10.5610   -2.7860    3.9650 ha        1 MOL      0.154860
    130 H56       -13.3480   -0.5180    1.6020 ha        1 MOL      0.154860
    131 H57       -12.2310   -4.6420    4.1300 ha        1 MOL      0.087386
    132 H58       -15.0970   -2.1740    2.2170 ha        1 MOL      0.087386
    133 H59       -14.3700   -4.3840    3.2110 ha        1 MOL      0.097678
    134 N12       -10.7920   -1.4460   -0.5470 n         1 MOL     -0.026119
    135 C45       -10.6610   -2.8300   -0.1490 c3        1 MOL      0.029038
    136 C46        -9.3640   -3.6210   -0.2900 c         1 MOL      0.253825
    137 O20        -9.0230   -4.6380    0.4380 o         1 MOL     -0.518211
    138 C47       -11.7080   -3.6640   -0.8510 c3        1 MOL     -0.068503
    139 C48       -12.6680   -2.6390   -1.4070 c3        1 MOL      0.176071
    140 C49       -11.8020   -1.4010   -1.6180 c3        1 MOL     -0.313122
    141 H60       -10.8760   -2.7570    0.9180 h1        1 MOL      0.109724
    142 H61       -11.2840   -4.2320   -1.6820 hc        1 MOL      0.040905
    143 H62       -12.3250   -4.2840   -0.2070 hc        1 MOL      0.040905
    144 H63       -13.1150   -3.0110   -2.3300 hc        1 MOL     -0.034678
    145 H64       -13.5510   -2.4360   -0.8050 hc        1 MOL     -0.034678
    146 H65       -11.3060   -1.5500   -2.5770 h1        1 MOL      0.131766
    147 H66       -12.4070   -0.4950   -1.5720 h1        1 MOL      0.131766
    148 N13        -8.5490   -3.2160   -1.2600 n         1 MOL     -0.101141
    149 C50        -7.2400   -3.6400   -1.6000 c3        1 MOL     -0.019503
    150 C51        -7.2790   -4.9030   -2.4890 c         1 MOL      0.384074
    151 O21        -7.5760   -4.7500   -3.6590 o         1 MOL     -0.556536
    152 C52        -6.3510   -2.5130   -2.2100 c3        1 MOL      0.204108
    153 C53        -4.8560   -2.8750   -2.3100 c3        1 MOL     -0.088402
    154 C54        -4.0680   -1.8970   -3.1880 c         1 MOL      0.708820
    155 O22        -3.1220   -1.2380   -2.6780 o         1 MOL     -0.729376
    156 O23        -4.3840   -1.7070   -4.3780 o         1 MOL     -0.729376
    157 H67        -8.8990   -2.5100   -1.8870 hn        1 MOL      0.189740
    158 H68        -6.8320   -3.9780   -0.6510 h1        1 MOL      0.079509
    159 H69        -6.5400   -1.6610   -1.5390 hc        1 MOL     -0.054063
    160 H70        -6.6030   -2.2180   -3.2250 hc        1 MOL     -0.054063
    161 H71        -4.5980   -3.8060   -2.8170 hc        1 MOL     -0.027245
    162 H72        -4.3910   -2.9330   -1.3290 hc        1 MOL     -0.027245
    163 N14        -7.1430   -6.1490   -2.0450 n         1 MOL     -0.275450
    164 C55        -6.9430   -6.7170   -0.7080 c3        1 MOL     -0.112337
    165 H73        -7.2230   -5.9800    0.0450 h1        1 MOL      0.069857
    166 H74        -7.5640   -7.6050   -0.5940 h1        1 MOL      0.069857
    167 H75        -5.8950   -6.9870   -0.5800 h1        1 MOL      0.069857
    168 H76        -7.1380   -6.7220   -2.8660 hn        1 MOL      0.239347
    169 Ca1         7.4490   -0.8750   -1.1980 Ca        1 MOL      1.705556
    170 O24         9.2710   -2.6760   -2.6920 oh        1 MOL     -0.784426
    171 O25         6.1410   -2.9850   -2.4230 oh        1 MOL     -0.784426
    172 H77         9.5310   -2.6510   -3.6200 ho        1 MOL      0.390226
    173 H78         5.2150   -2.9900   -2.1850 ho        1 MOL      0.390226
    174 H79        10.1040   -2.6620   -2.2130 ho        1 MOL      0.390226
    175 H80         6.1730   -3.3720   -3.3010 ho        1 MOL      0.390226
    176 O26         4.8610   -0.5250   -0.0460 oh        1 MOL     -0.784426
    177 H81         4.2050   -0.9530   -0.6020 ho        1 MOL      0.390226
    178 H82         4.5480   -0.6660    0.8430 ho        1 MOL      0.390226
    179 O27         6.8900   -0.7650   -3.8420 oh        1 MOL     -0.784426
    180 H83         7.3890   -1.1890   -4.5410 ho        1 MOL      0.390226
    181 H84         6.4550   -0.0230   -4.2670 ho        1 MOL      0.390226
@<TRIPOS>BOND
     1    1    2 1   
     2    1    4 1   
     3    1    5 1   
     4    1    6 1   
     5    2    3 2   
     6    2    7 1   
     7    7    8 1   
     8    7   15 1   
     9    8    9 1   
    10    8   11 1   
    11    8   16 1   
    12    9   10 2   
    13    9   19 1   
    14   11   12 1   
    15   11   17 1   
    16   11   18 1   
    17   12   13 1   
    18   12   14 1   
    19   19   20 1   
    20   19   24 1   
    21   20   21 1   
    22   20   23 1   
    23   20   25 1   
    24   21   22 2   
    25   21   29 1   
    26   23   26 1   
    27   23   27 1   
    28   23   28 1   
    29   29   30 1   
    30   29   37 1   
    31   30   31 1   
    32   30   33 1   
    33   30   38 1   
    34   31   32 2   
    35   31   41 1   
    36   33   34 1   
    37   33   39 1   
    38   33   40 1   
    39   34   35 1   
    40   34   36 1   
    41   41   42 1   
    42   41   45 1   
    43   42   43 1   
    44   42   46 1   
    45   42   47 1   
    46   43   44 2   
    47   43   48 1   
    48   48   49 1   
    49   48   56 1   
    50   49   50 1   
    51   49   52 1   
    52   49   57 1   
    53   50   51 2   
    54   50   62 1   
    55   52   53 1   
    56   52   58 1   
    57   52   59 1   
    58   53   54 1   
    59   53   55 2   
    60   54   60 1   
    61   54   61 1   
    62   62   63 1   
    63   62   66 1   
    64   63   64 1   
    65   63   67 1   
    66   63   68 1   
    67   64   65 2   
    68   64   69 1   
    69   69   70 1   
    70   69   76 1   
    71   70   71 1   
    72   70   73 1   
    73   70   77 1   
    74   71   72 2   
    75   71   83 1   
    76   73   74 1   
    77   73   75 1   
    78   73   78 1   
    79   74   80 1   
    80   74   81 1   
    81   74   82 1   
    82   75   79 1   
    83   83   84 1   
    84   83   91 1   
    85   84   85 1   
    86   84   87 1   
    87   84   92 1   
    88   85   86 2   
    89   85  102 1   
    90   87   88 1   
    91   87   89 1   
    92   87   93 1   
    93   88   90 1   
    94   88   94 1   
    95   88   95 1   
    96   89   96 1   
    97   89   97 1   
    98   89   98 1   
    99   90   99 1   
   100   90  100 1   
   101   90  101 1   
   102  102  103 1   
   103  102  110 1   
   104  103  104 1   
   105  103  106 1   
   106  103  111 1   
   107  104  105 2   
   108  104  114 1   
   109  106  107 1   
   110  106  112 1   
   111  106  113 1   
   112  107  108 1   
   113  107  109 1   
   114  114  115 1   
   115  114  125 1   
   116  115  116 1   
   117  115  118 1   
   118  115  126 1   
   119  116  117 2   
   120  116  134 1   
   121  118  119 1   
   122  118  127 1   
   123  118  128 1   
   124  119  120 ar  
   125  119  121 ar  
   126  120  122 ar  
   127  120  129 1   
   128  121  123 ar  
   129  121  130 1   
   130  122  124 ar  
   131  122  131 1   
   132  123  124 ar  
   133  123  132 1   
   134  124  133 1   
   135  134  135 1   
   136  134  140 1   
   137  135  136 1   
   138  135  138 1   
   139  135  141 1   
   140  136  137 2   
   141  136  148 1   
   142  138  139 1   
   143  138  142 1   
   144  138  143 1   
   145  139  140 1   
   146  139  144 1   
   147  139  145 1   
   148  140  146 1   
   149  140  147 1   
   150  148  149 1   
   151  148  157 1   
   152  149  150 1   
   153  149  152 1   
   154  149  158 1   
   155  150  151 2   
   156  150  163 1   
   157  152  153 1   
   158  152  159 1   
   159  152  160 1   
   160  153  154 1   
   161  153  161 1   
   162  153  162 1   
   163  154  155 1   
   164  154  156 1   
   165  163  164 1   
   166  163  168 1   
   167  164  165 1   
   168  164  166 1   
   169  164  167 1   
   170  170  172 1   
   171  170  174 1   
   172  171  173 1   
   173  171  175 1   
   174  176  177 1   
   175  176  178 1   
   176  179  180 1   
   177  179  181 1   
@<TRIPOS>SUBSTRUCTURE
     1 MOL         1 TEMP              0 ****  ****    0 ROOT
