@<TRIPOS>MOLECULE
MOL
  182   178     1     0     0
SMALL
resp


@<TRIPOS>ATOM
      1 C1          0.6640   -4.1840    5.6380 c3        1 MOL     -0.345994
      2 C2          0.7230   -3.9570    4.1890 c         1 MOL      0.755185
      3 O1         -0.2590   -3.9590    3.4960 o         1 MOL     -0.572903
      4 H1          1.6100   -4.6070    5.9780 hc        1 MOL      0.095403
      5 H2          0.4860   -3.2380    6.1480 hc        1 MOL      0.095403
      6 H3         -0.1450   -4.8770    5.8650 hc        1 MOL      0.095403
      7 N1          1.9450   -3.6780    3.7220 n         1 MOL     -0.554862
      8 C3          2.2070   -3.3090    2.3730 c3        1 MOL      0.055620
      9 C4          2.0970   -4.5140    1.3630 c         1 MOL      0.514130
     10 O2          2.3530   -5.6630    1.7050 o         1 MOL     -0.558588
     11 C5          3.5850   -2.5960    2.2640 c3        1 MOL     -0.065779
     12 C6          3.6290   -1.5360    1.1190 c         1 MOL      0.580368
     13 O3          4.0120   -0.3670    1.3570 o         1 MOL     -0.644757
     14 O4          3.5610   -1.8420   -0.0740 o         1 MOL     -0.644757
     15 H4          2.7510   -3.9060    4.2940 hn        1 MOL      0.333449
     16 H5          1.4770   -2.5680    2.0560 h1        1 MOL     -0.322960
     17 H6          4.3190   -3.3530    1.9760 hc        1 MOL      0.075100
     18 H7          3.7930   -2.1260    3.2210 hc        1 MOL      0.075100
     19 N2          1.9370   -4.2540    0.0820 n         1 MOL     -0.043216
     20 C7          2.0030   -5.1740   -1.0740 c3        1 MOL     -0.044731
     21 C8          3.2430   -5.1660   -1.8970 c         1 MOL      0.495557
     22 O5          3.5090   -6.1660   -2.5770 o         1 MOL     -0.565061
     23 C9          0.6550   -5.1400   -1.8270 c3        1 MOL      0.246573
     24 C10        -0.5160   -5.8930   -1.1810 c3        1 MOL     -0.151494
     25 C11        -1.8480   -5.7370   -1.8750 c3        1 MOL      0.247780
     26 C12        -2.8880   -6.8330   -1.5050 c3        1 MOL      0.031642
     27 N3         -3.7140   -7.1740   -2.6990 n4        1 MOL     -0.304786
     28 H8          1.6330   -3.2970   -0.0650 hn        1 MOL      0.103338
     29 H9          2.0310   -6.1760   -0.6440 h1        1 MOL      0.066861
     30 H10         0.8620   -5.5610   -2.8160 hc        1 MOL     -0.070682
     31 H11         0.4500   -4.0850   -1.9910 hc        1 MOL     -0.070682
     32 H12        -0.6630   -5.4050   -0.2200 hc        1 MOL      0.019380
     33 H13        -0.2460   -6.9540   -1.0990 hc        1 MOL      0.019380
     34 H14        -1.5690   -5.6660   -2.9270 hc        1 MOL     -0.061115
     35 H15        -2.2830   -4.7580   -1.6920 hc        1 MOL     -0.061115
     36 H16        -3.5040   -6.4760   -0.6740 hx        1 MOL      0.075836
     37 H17        -2.3370   -7.7150   -1.1980 hx        1 MOL      0.075836
     38 H18        -4.3820   -6.4440   -2.8700 hn        1 MOL      0.267352
     39 H19        -3.0330   -7.3080   -3.4330 hn        1 MOL      0.267352
     40 H20        -4.2510   -8.0290   -2.7340 hn        1 MOL      0.267352
     41 N4          3.9430   -4.0350   -1.8650 n         1 MOL     -0.244874
     42 C13         5.1310   -3.7690   -2.6740 c3        1 MOL      0.173849
     43 C14         6.2540   -3.4420   -1.7400 c         1 MOL      0.425979
     44 O6          7.3480   -3.4290   -2.1850 o         1 MOL     -0.542655
     45 C15         4.8460   -2.6390   -3.7510 c3        1 MOL     -0.318870
     46 C16         4.2510   -1.4010   -3.0380 c         1 MOL      0.792239
     47 O7          5.0280   -0.7090   -2.3770 o         1 MOL     -0.717822
     48 O8          3.0570   -1.0990   -3.1930 o         1 MOL     -0.717822
     49 H21         3.6070   -3.2940   -1.2570 hn        1 MOL      0.010143
     50 H22         5.4100   -4.6690   -3.2110 h1        1 MOL      0.072540
     51 H23         4.1330   -3.0170   -4.4740 hc        1 MOL      0.089428
     52 H24         5.8370   -2.4400   -4.1630 hc        1 MOL      0.089428
     53 N5          5.9940   -3.1250   -0.4890 n         1 MOL     -0.139750
     54 C17         6.9510   -2.9860    0.6010 c3        1 MOL     -0.169282
     55 C18         7.4200   -1.5440    0.9430 c         1 MOL      0.483726
     56 O9          8.0860   -1.2390    1.9820 o         1 MOL     -0.563393
     57 H25         5.0230   -2.9210   -0.2970 hn        1 MOL      0.048099
     58 H26         7.8850   -3.3780    0.2130 h1        1 MOL      0.107071
     59 H27         6.6170   -3.4010    1.5550 h1        1 MOL      0.107071
     60 N6          7.0690   -0.5600    0.0830 n         1 MOL     -0.221511
     61 C19         7.5130    0.8790    0.2040 c3        1 MOL      0.084088
     62 C20         6.3550    1.9090    0.2020 c         1 MOL      0.492026
     63 O10         5.3220    1.7200   -0.4200 o         1 MOL     -0.506515
     64 C21         8.4640    1.1210   -0.9970 c3        1 MOL     -0.360461
     65 C22         9.1090    2.4380   -0.7990 c         1 MOL      0.648870
     66 N7         10.3220    2.5620   -0.2810 n         1 MOL     -0.744693
     67 O11         8.6210    3.4880   -1.2290 o         1 MOL     -0.565538
     68 H28         6.6900   -0.8680   -0.8010 hn        1 MOL      0.250103
     69 H29         8.1210    1.0500    1.0930 h1        1 MOL      0.038164
     70 H30         7.8740    1.1080   -1.9100 hc        1 MOL      0.139391
     71 H31         9.2500    0.3670   -1.0500 hc        1 MOL      0.139391
     72 H32        10.8330    1.7270   -0.0410 hn        1 MOL      0.353159
     73 H33        10.6190    3.4840    0.0340 hn        1 MOL      0.353159
     74 N8          6.5130    3.0340    0.8710 n         1 MOL     -0.323178
     75 C23         5.7110    4.2780    0.7290 c3        1 MOL     -0.233961
     76 C24         4.3110    4.2700    1.4300 c         1 MOL      0.677098
     77 O12         4.1380    3.8770    2.5700 o         1 MOL     -0.488358
     78 H34         7.1510    2.9330    1.6570 hn        1 MOL      0.279433
     79 H35         5.7020    4.5590   -0.3200 h1        1 MOL      0.125769
     80 H36         6.3010    5.0730    1.1870 h1        1 MOL      0.125769
     81 N9          3.3160    4.8120    0.6900 n         1 MOL     -0.636956
     82 C25         1.8830    4.5560    1.0250 c3        1 MOL      0.052895
     83 C26         1.5970    3.0300    1.1340 c         1 MOL      0.651731
     84 O13         2.2470    2.1960    0.5730 o         1 MOL     -0.649085
     85 C27         0.8910    5.0730    0.0300 c3        1 MOL     -0.200694
     86 C28         1.0170    6.5080   -0.4860 ca        1 MOL      0.117463
     87 C29         1.5150    7.5400    0.3330 ca        1 MOL     -0.173989
     88 C30         0.6570    6.8690   -1.8210 ca        1 MOL     -0.173989
     89 C31         1.5160    8.8780   -0.1080 ca        1 MOL     -0.312283
     90 C32         0.8160    8.1590   -2.3550 ca        1 MOL     -0.312283
     91 C33         1.1950    9.1540   -1.4530 ca        1 MOL      0.413009
     92 O14         1.2560   10.4360   -1.8020 oh        1 MOL     -0.464785
     93 H37         3.5730    5.0320   -0.2590 hn        1 MOL      0.339753
     94 H38         1.6630    5.0540    1.9590 h1        1 MOL      0.096226
     95 H39        -0.1000    4.8600    0.4280 hc        1 MOL      0.064079
     96 H40         1.0270    4.5320   -0.9030 hc        1 MOL      0.064079
     97 H41         1.8140    7.2820    1.3310 ha        1 MOL      0.144305
     98 H42         0.2900    6.0490   -2.4260 ha        1 MOL      0.144305
     99 H43         1.8220    9.6470    0.5810 ha        1 MOL      0.180591
    100 H44         0.6540    8.3710   -3.4060 ha        1 MOL      0.180591
    101 H45         1.3950   10.9370   -1.0000 ho        1 MOL      0.344494
    102 N10         0.5220    2.7860    1.9500 n         1 MOL     -0.696698
    103 C34         0.0880    1.4840    2.4360 c3        1 MOL      0.372470
    104 C35        -0.1300    0.5180    1.2510 c         1 MOL      0.267894
    105 O15         0.7860   -0.0140    0.6150 o         1 MOL     -0.171129
    106 C36         1.0820    0.9470    3.5410 c3        1 MOL      0.195977
    107 C37         0.8220   -0.3300    4.2670 c3        1 MOL     -0.116430
    108 C38         1.3230    1.9540    4.6950 c3        1 MOL     -0.334556
    109 C39        -0.4750   -0.5280    5.1340 c3        1 MOL     -0.177070
    110 H46        -0.0460    3.5790    2.2160 hn        1 MOL      0.342225
    111 H47        -0.8390    1.6760    2.9840 h1        1 MOL     -0.004924
    112 H48         1.9930    0.7570    2.9750 hc        1 MOL      0.022736
    113 H49         1.6820   -0.5210    4.9190 hc        1 MOL      0.084603
    114 H50         0.8930   -1.1690    3.5710 hc        1 MOL      0.084603
    115 H51         0.3880    2.3830    5.0740 hc        1 MOL      0.077656
    116 H52         1.8810    1.4600    5.4810 hc        1 MOL      0.077656
    117 H53         1.9600    2.7630    4.3370 hc        1 MOL      0.077656
    118 H54        -1.3720   -0.6080    4.5270 hc        1 MOL      0.044913
    119 H55        -0.4560   -1.4410    5.7340 hc        1 MOL      0.044913
    120 H56        -0.5850    0.3160    5.8100 hc        1 MOL      0.044913
    121 N11        -1.4200    0.2250    1.0060 n         1 MOL     -0.610460
    122 C40        -1.7330   -0.9570    0.1750 c3        1 MOL      0.225159
    123 C41        -3.2560   -0.9480   -0.2560 c         1 MOL      0.517039
    124 O16        -3.5980   -1.8440   -1.0000 o         1 MOL     -0.548715
    125 C42        -1.4070   -2.2120    1.0040 c3        1 MOL      0.154314
    126 O17        -2.2390   -2.3210    2.1800 oh        1 MOL     -0.589533
    127 H57        -2.0900    0.6090    1.6580 hn        1 MOL      0.327087
    128 H58        -1.1130   -1.0150   -0.7170 h1        1 MOL     -0.015041
    129 H59        -0.3420   -2.1300    1.2410 h1        1 MOL      0.042817
    130 H60        -1.5230   -3.0840    0.3710 h1        1 MOL      0.042817
    131 H61        -1.8200   -3.0230    2.6880 ho        1 MOL      0.392137
    132 N12        -4.0740    0.0090    0.2710 n         1 MOL     -0.504735
    133 C43        -5.5060    0.1160   -0.0440 c3        1 MOL      0.162069
    134 C44        -5.6290    0.8610   -1.3640 c         1 MOL      0.677184
    135 O18        -4.6430    1.3620   -1.9450 o         1 MOL     -0.585063
    136 C45        -6.0720    0.9300    1.1340 c3        1 MOL     -0.401738
    137 H62        -3.5840    0.6280    0.9050 hn        1 MOL      0.269830
    138 H63        -5.8370   -0.9180    0.0020 h1        1 MOL      0.123007
    139 H64        -5.8030    0.4220    2.0640 hc        1 MOL      0.127913
    140 H65        -5.6860    1.9420    1.0690 hc        1 MOL      0.127913
    141 H66        -7.1590    1.0140    1.1310 hc        1 MOL      0.127913
    142 N13        -6.8170    0.9470   -1.9050 n         1 MOL     -0.702645
    143 C46        -8.1270    0.2230   -1.7530 c3        1 MOL      0.408566
    144 C47        -9.3130    1.0380   -2.4690 c         1 MOL      0.473139
    145 O19        -9.1350    1.5570   -3.5530 o         1 MOL     -0.512374
    146 C48        -7.9870   -1.1950   -2.3040 c3        1 MOL     -0.274582
    147 H67        -6.7340    1.4010   -2.8010 hn        1 MOL      0.322877
    148 H68        -8.2750    0.1290   -0.6730 h1        1 MOL     -0.084020
    149 H69        -7.0880   -1.6500   -1.8830 hc        1 MOL      0.076010
    150 H70        -8.8900   -1.8070   -2.2400 hc        1 MOL      0.076010
    151 H71        -7.9110   -1.0160   -3.3740 hc        1 MOL      0.076010
    152 N14       -10.5400    1.0440   -1.8690 n         1 MOL     -0.489378
    153 C49       -10.8950    0.4530   -0.5600 c3        1 MOL     -0.123663
    154 C50       -10.2830    1.3380    0.6290 c         1 MOL      0.588057
    155 O20        -9.8050    0.8340    1.5890 o         1 MOL     -0.549095
    156 C51       -12.4190    0.1110   -0.4890 c3        1 MOL      0.127868
    157 C52       -12.8380   -0.4140    0.9260 c3        1 MOL     -0.312119
    158 C53       -14.3850   -0.4840    0.9670 c         1 MOL      0.723518
    159 O21       -14.9650   -1.5290    0.7090 o         1 MOL     -0.668369
    160 O22       -14.9630    0.6060    1.3220 o         1 MOL     -0.668369
    161 H72       -11.2060    1.6690   -2.2950 hn        1 MOL      0.318565
    162 H73       -10.4210   -0.5180   -0.4250 h1        1 MOL      0.113102
    163 H74       -12.6270   -0.6330   -1.2630 hc        1 MOL     -0.000392
    164 H75       -12.9670    1.0260   -0.7110 hc        1 MOL     -0.000392
    165 H76       -12.5550    0.3350    1.6660 hc        1 MOL      0.067397
    166 H77       -12.3290   -1.3770    0.9930 hc        1 MOL      0.067397
    167 N15       -10.1010    2.6000    0.3180 n         1 MOL     -0.322956
    168 C54        -9.2150    3.5780    1.0240 c3        1 MOL     -0.175632
    169 H78        -8.5210    3.0380    1.6690 h1        1 MOL      0.098034
    170 H79        -8.6530    4.1560    0.2900 h1        1 MOL      0.098034
    171 H80        -9.8230    4.2510    1.6290 h1        1 MOL      0.098034
    172 H81       -10.5840    2.8570   -0.5330 hn        1 MOL      0.251274
    173 Ca1         2.9900    0.4570   -1.0660 Ca        1 MOL      1.706529
    174 O23         0.9500    1.2230   -2.4800 oh        1 MOL     -0.828219
    175 H82         0.9060    1.6220   -3.3480 ho        1 MOL      0.414369
    176 H83         0.0460    1.2570   -2.1590 ho        1 MOL      0.414369
    177 O24         3.9750    2.2250   -2.9280 oh        1 MOL     -0.828219
    178 H84         3.6280    2.8780   -3.5290 ho        1 MOL      0.414369
    179 H85         4.8750    2.4890   -2.7750 ho        1 MOL      0.414369
    180 O25         0.9820   -1.7000   -2.1130 oh        1 MOL     -0.828219
    181 H86         1.5810   -1.8330   -2.8330 ho        1 MOL      0.414369
    182 H87         0.1410   -2.0310   -2.4280 ho        1 MOL      0.414369
@<TRIPOS>BOND
     1    1    2 1   
     2    1    4 1   
     3    1    5 1   
     4    1    6 1   
     5    2    3 2   
     6    2    7 1   
     7    7    8 1   
     8    7   15 1   
     9    8    9 1   
    10    8   11 1   
    11    8   16 1   
    12    9   10 2   
    13    9   19 1   
    14   11   12 1   
    15   11   17 1   
    16   11   18 1   
    17   12   13 1   
    18   12   14 1   
    19   19   20 1   
    20   19   28 1   
    21   20   21 1   
    22   20   23 1   
    23   20   29 1   
    24   21   22 2   
    25   21   41 1   
    26   23   24 1   
    27   23   30 1   
    28   23   31 1   
    29   24   25 1   
    30   24   32 1   
    31   24   33 1   
    32   25   26 1   
    33   25   34 1   
    34   25   35 1   
    35   26   27 1   
    36   26   36 1   
    37   26   37 1   
    38   27   38 1   
    39   27   39 1   
    40   27   40 1   
    41   41   42 1   
    42   41   49 1   
    43   42   43 1   
    44   42   45 1   
    45   42   50 1   
    46   43   44 2   
    47   43   53 1   
    48   45   46 1   
    49   45   51 1   
    50   45   52 1   
    51   46   47 1   
    52   46   48 1   
    53   53   54 1   
    54   53   57 1   
    55   54   55 1   
    56   54   58 1   
    57   54   59 1   
    58   55   56 2   
    59   55   60 1   
    60   60   61 1   
    61   60   68 1   
    62   61   62 1   
    63   61   64 1   
    64   61   69 1   
    65   62   63 2   
    66   62   74 1   
    67   64   65 1   
    68   64   70 1   
    69   64   71 1   
    70   65   66 1   
    71   65   67 2   
    72   66   72 1   
    73   66   73 1   
    74   74   75 1   
    75   74   78 1   
    76   75   76 1   
    77   75   79 1   
    78   75   80 1   
    79   76   77 2   
    80   76   81 1   
    81   81   82 1   
    82   81   93 1   
    83   82   83 1   
    84   82   85 1   
    85   82   94 1   
    86   83   84 2   
    87   83  102 1   
    88   85   86 1   
    89   85   95 1   
    90   85   96 1   
    91   86   87 ar  
    92   86   88 ar  
    93   87   89 ar  
    94   87   97 1   
    95   88   90 ar  
    96   88   98 1   
    97   89   91 ar  
    98   89   99 1   
    99   90   91 ar  
   100   90  100 1   
   101   91   92 1   
   102   92  101 1   
   103  102  103 1   
   104  102  110 1   
   105  103  104 1   
   106  103  106 1   
   107  103  111 1   
   108  104  105 2   
   109  104  121 1   
   110  106  107 1   
   111  106  108 1   
   112  106  112 1   
   113  107  109 1   
   114  107  113 1   
   115  107  114 1   
   116  108  115 1   
   117  108  116 1   
   118  108  117 1   
   119  109  118 1   
   120  109  119 1   
   121  109  120 1   
   122  121  122 1   
   123  121  127 1   
   124  122  123 1   
   125  122  125 1   
   126  122  128 1   
   127  123  124 2   
   128  123  132 1   
   129  125  126 1   
   130  125  129 1   
   131  125  130 1   
   132  126  131 1   
   133  132  133 1   
   134  132  137 1   
   135  133  134 1   
   136  133  136 1   
   137  133  138 1   
   138  134  135 2   
   139  134  142 1   
   140  136  139 1   
   141  136  140 1   
   142  136  141 1   
   143  142  143 1   
   144  142  147 1   
   145  143  144 1   
   146  143  146 1   
   147  143  148 1   
   148  144  145 2   
   149  144  152 1   
   150  146  149 1   
   151  146  150 1   
   152  146  151 1   
   153  152  153 1   
   154  152  161 1   
   155  153  154 1   
   156  153  156 1   
   157  153  162 1   
   158  154  155 2   
   159  154  167 1   
   160  156  157 1   
   161  156  163 1   
   162  156  164 1   
   163  157  158 1   
   164  157  165 1   
   165  157  166 1   
   166  158  159 1   
   167  158  160 1   
   168  167  168 1   
   169  167  172 1   
   170  168  169 1   
   171  168  170 1   
   172  168  171 1   
   173  174  175 1   
   174  174  176 1   
   175  177  178 1   
   176  177  179 1   
   177  180  181 1   
   178  180  182 1   
@<TRIPOS>SUBSTRUCTURE
     1 MOL         1 TEMP              0 ****  ****    0 ROOT
