@<TRIPOS>MOLECULE
MOL
  189   185     1     0     0
SMALL
resp


@<TRIPOS>ATOM
      1 C1          9.9170    0.3520    2.4210 c3        1 MOL     -0.410234
      2 C2          8.6470    0.2420    1.5230 c         1 MOL      0.685607
      3 O1          7.5410    0.0930    2.0060 o         1 MOL     -0.629369
      4 H1         10.5210   -0.5480    2.3060 hc        1 MOL      0.106342
      5 H2         10.5010    1.2220    2.1220 hc        1 MOL      0.106342
      6 H3          9.6160    0.4560    3.4650 hc        1 MOL      0.106342
      7 N1          8.8540    0.2300    0.1880 n         1 MOL     -0.404002
      8 C3          7.7530    0.1920   -0.8330 c3        1 MOL     -0.109671
      9 C4          7.1760   -1.2020   -1.2500 c         1 MOL      0.546487
     10 O2          7.3880   -1.5890   -2.4320 o         1 MOL     -0.474934
     11 C5          8.0930    1.1900   -1.9650 c3        1 MOL     -0.368716
     12 C6          9.4970    1.2130   -2.6390 c         1 MOL      0.789616
     13 O3         10.3810    0.3180   -2.3930 o         1 MOL     -0.643767
     14 O4          9.9030    2.0580   -3.4370 o         1 MOL     -0.643767
     15 H4          9.7800    0.1580   -0.1920 hn        1 MOL      0.221668
     16 H5          6.8780    0.6650   -0.3770 h1        1 MOL      0.180922
     17 H6          7.9350    2.1210   -1.4170 hc        1 MOL      0.107712
     18 H7          7.3490    1.2130   -2.7650 hc        1 MOL      0.107712
     19 N2          6.5310   -1.9400   -0.3540 n         1 MOL     -0.407535
     20 C7          5.9120   -3.2350   -0.7170 c3        1 MOL      0.233418
     21 C8          4.5410   -3.0700   -1.4500 c         1 MOL      0.340070
     22 O5          4.4410   -3.6440   -2.5610 o         1 MOL     -0.524379
     23 C9          5.8440   -4.2200    0.4280 c3        1 MOL     -0.006108
     24 C10         7.1500   -4.4900    1.1670 c3        1 MOL      0.091793
     25 C11         8.4220   -5.0520    0.4090 c3        1 MOL     -0.151134
     26 C12         9.7640   -4.6570    1.1190 c3        1 MOL      0.081383
     27 N3          9.7590   -5.2150    2.5310 n4        1 MOL     -0.309917
     28 H8          6.3490   -1.4430    0.5080 hn        1 MOL      0.209136
     29 H9          6.4580   -3.7440   -1.5090 h1        1 MOL      0.019772
     30 H10         5.5240   -5.1750    0.0300 hc        1 MOL      0.016455
     31 H11         5.1210   -3.9130    1.1930 hc        1 MOL      0.016455
     32 H12         6.9640   -5.2310    1.9380 hc        1 MOL     -0.043919
     33 H13         7.5350   -3.5570    1.5860 hc        1 MOL     -0.043919
     34 H14         8.5010   -4.5770   -0.5660 hc        1 MOL      0.083181
     35 H15         8.2670   -6.1310    0.3890 hc        1 MOL      0.083181
     36 H16         9.9330   -3.5830    1.1320 hx        1 MOL      0.078837
     37 H17        10.6110   -5.1050    0.6090 hx        1 MOL      0.078837
     38 H18         9.6000   -6.2140    2.5590 hn        1 MOL      0.304858
     39 H19        10.6540   -5.1610    2.9900 hn        1 MOL      0.304858
     40 H20         9.1390   -4.7320    3.1720 hn        1 MOL      0.304858
     41 N4          3.5110   -2.3930   -1.0110 n         1 MOL     -0.247736
     42 C13         3.5020   -1.5770    0.2500 c3        1 MOL     -0.066541
     43 C14         3.4660   -0.1110   -0.0710 c         1 MOL      0.346194
     44 O6          3.4810    0.2680   -1.1940 o         1 MOL     -0.400473
     45 C15         2.4620   -2.1290    1.2130 c3        1 MOL     -0.448388
     46 C16         1.0850   -2.3110    0.6440 c         1 MOL      0.876424
     47 O7          0.7270   -1.6180   -0.3520 o         1 MOL     -0.726284
     48 O8          0.3220   -3.2030    1.1500 o         1 MOL     -0.726284
     49 H21         2.7690   -2.2290   -1.6820 hn        1 MOL      0.291290
     50 H22         4.4540   -1.6870    0.7730 h1        1 MOL      0.179064
     51 H23         2.2940   -1.5240    2.1000 hc        1 MOL      0.110952
     52 H24         2.8460   -3.1040    1.5050 hc        1 MOL      0.110952
     53 N5          3.4750    0.7350    0.9300 n         1 MOL     -0.421004
     54 C17         3.5010    2.2060    0.7040 c3        1 MOL     -0.076446
     55 C18         2.3320    2.7780   -0.1470 c         1 MOL      0.300954
     56 O9          1.2310    2.1480   -0.2930 o         1 MOL     -0.374543
     57 H25         3.4380    0.4420    1.8950 hn        1 MOL      0.294642
     58 H26         4.4050    2.5950    0.2190 h1        1 MOL      0.102827
     59 H27         3.4900    2.7420    1.6560 h1        1 MOL      0.102827
     60 N6          2.4920    3.9790   -0.8190 n         1 MOL     -0.272385
     61 C19         1.3610    4.7650   -1.2900 c3        1 MOL      0.259583
     62 C20         1.5730    6.3050   -1.0710 c         1 MOL      0.312351
     63 O10         2.7210    6.8000   -1.2710 o         1 MOL     -0.522014
     64 C21         1.1700    4.6250   -2.8210 c3        1 MOL     -0.279138
     65 C22         0.9870    3.3050   -3.4590 c         1 MOL      0.596796
     66 O11         1.4380    3.0890   -4.6060 o         1 MOL     -0.625840
     67 O12         0.3240    2.3880   -2.8440 o         1 MOL     -0.625840
     68 H28         3.3800    4.4620   -0.7630 hn        1 MOL      0.254200
     69 H29         0.4000    4.4260   -0.9030 h1        1 MOL     -0.062919
     70 H30         2.1570    4.9490   -3.1630 hc        1 MOL      0.088998
     71 H31         0.4030    5.3220   -3.1690 hc        1 MOL      0.088998
     72 N7          0.6270    7.1410   -0.7410 n         1 MOL     -0.348234
     73 C23        -0.7940    6.8860   -0.7940 c3        1 MOL     -0.087945
     74 C24        -1.3060    6.1190    0.4940 c         1 MOL      0.643033
     75 O13        -0.6130    6.1210    1.5230 o         1 MOL     -0.545803
     76 H32         0.9530    8.0910   -0.8250 hn        1 MOL      0.312109
     77 H33        -1.0480    6.4550   -1.7550 h1        1 MOL      0.082280
     78 H34        -1.2750    7.8500   -0.6550 h1        1 MOL      0.082280
     79 N8         -2.4900    5.4810    0.3930 n         1 MOL     -0.572361
     80 C25        -2.9950    4.4430    1.2720 c3        1 MOL     -0.027827
     81 C26        -2.0430    3.3060    1.5030 c         1 MOL      0.927517
     82 O14        -1.5650    2.7320    0.5360 o         1 MOL     -0.711167
     83 C27        -4.3020    3.9230    0.7600 c3        1 MOL      0.598459
     84 C28        -5.4170    5.0020    0.6130 c3        1 MOL     -0.277286
     85 O15        -4.8930    2.8820    1.5500 oh        1 MOL     -0.663336
     86 H35        -2.9610    5.6790   -0.4770 hn        1 MOL      0.263387
     87 H36        -3.0880    4.9090    2.2510 h1        1 MOL      0.046954
     88 H37        -4.1000    3.4810   -0.2150 h1        1 MOL     -0.101766
     89 H38        -4.7730    2.0510    1.0780 ho        1 MOL      0.340725
     90 H39        -6.2830    4.5930    0.0880 hc        1 MOL      0.062809
     91 H40        -5.6200    5.3470    1.6280 hc        1 MOL      0.062809
     92 H41        -5.0620    5.8510    0.0320 hc        1 MOL      0.062809
     93 N9         -1.8790    2.9050    2.7610 n         1 MOL     -0.972291
     94 C29        -0.9720    1.8510    3.1680 c3        1 MOL      0.566534
     95 C30        -1.1930    0.4930    2.4240 c         1 MOL      0.480594
     96 O16        -0.8100    0.3060    1.2990 o         1 MOL     -0.455941
     97 C31         0.5320    2.3530    2.9980 c3        1 MOL      0.044701
     98 C32         0.9280    3.5770    3.7700 c3        1 MOL      0.065361
     99 C33         1.5130    1.1960    3.4070 c3        1 MOL     -0.550538
    100 C34         0.9370    3.4890    5.3210 c3        1 MOL     -0.220175
    101 H42        -2.2960    3.4700    3.4820 hn        1 MOL      0.379769
    102 H43        -1.0790    1.6350    4.2400 h1        1 MOL     -0.058711
    103 H44         0.5700    2.5470    1.9300 hc        1 MOL      0.022474
    104 H45         0.2920    4.4170    3.4960 hc        1 MOL      0.020653
    105 H46         1.9280    3.8120    3.3990 hc        1 MOL      0.020653
    106 H47         1.5240    0.4190    2.6430 hc        1 MOL      0.139045
    107 H48         2.5500    1.5140    3.5040 hc        1 MOL      0.139045
    108 H49         1.1300    0.6910    4.2990 hc        1 MOL      0.139045
    109 H50         1.5600    2.6730    5.6680 hc        1 MOL      0.048587
    110 H51         1.2510    4.4410    5.7490 hc        1 MOL      0.048587
    111 H52        -0.1040    3.3700    5.6260 hc        1 MOL      0.048587
    112 N10        -1.9100   -0.3920    3.0850 n         1 MOL     -0.569908
    113 C35        -2.1860   -1.7870    2.7160 c3        1 MOL     -0.149973
    114 C36        -3.6290   -2.1920    2.5910 c         1 MOL      0.554292
    115 O17        -3.9350   -3.2530    2.0910 o         1 MOL     -0.561596
    116 C37        -1.4800   -2.8250    3.5980 c3        1 MOL      0.418587
    117 C38        -1.9450   -2.9310    5.0020 c3        1 MOL     -0.372656
    118 O18        -0.0990   -2.5150    3.7510 oh        1 MOL     -0.591196
    119 H53        -2.2050   -0.0920    4.0040 hn        1 MOL      0.282115
    120 H54        -1.7640   -2.0000    1.7390 h1        1 MOL      0.256870
    121 H55        -1.5710   -3.7860    3.1000 h1        1 MOL      0.006090
    122 H56         0.1790   -2.6320    2.8490 ho        1 MOL      0.320297
    123 H57        -1.6640   -2.0390    5.5590 hc        1 MOL      0.083051
    124 H58        -3.0140   -3.1140    5.1390 hc        1 MOL      0.083051
    125 H59        -1.3890   -3.7920    5.3710 hc        1 MOL      0.083051
    126 N11        -4.5920   -1.3000    2.9650 n         1 MOL     -0.231718
    127 C39        -6.0640   -1.5300    2.7310 c3        1 MOL     -0.127770
    128 C40        -6.5010   -1.6500    1.3080 c         1 MOL      0.423449
    129 O19        -6.3610   -0.7440    0.5160 o         1 MOL     -0.432047
    130 C41        -6.9100   -0.5370    3.4780 c3        1 MOL      0.221151
    131 C42        -6.7750   -0.6320    4.9610 c3        1 MOL     -0.005531
    132 O20        -6.5580    0.7990    3.2290 oh        1 MOL     -0.561121
    133 H60        -4.3950   -0.4540    3.4800 hn        1 MOL      0.263790
    134 H61        -6.1860   -2.5090    3.2200 h1        1 MOL      0.080774
    135 H62        -7.9760   -0.7270    3.3800 h1        1 MOL      0.026512
    136 H63        -7.3960    1.2230    3.0410 ho        1 MOL      0.394261
    137 H64        -7.1580    0.2030    5.5450 hc        1 MOL     -0.006418
    138 H65        -7.2990   -1.5410    5.2450 hc        1 MOL     -0.006418
    139 H66        -5.7600   -0.8900    5.2740 hc        1 MOL     -0.006418
    140 N12        -6.9700   -2.7990    0.8890 n         1 MOL     -0.418061
    141 C43        -7.2710   -3.2000   -0.5600 c3        1 MOL      0.078952
    142 C44        -6.1440   -2.7680   -1.5090 c         1 MOL      0.373593
    143 O21        -6.4070   -2.0160   -2.4390 o         1 MOL     -0.526234
    144 C45        -8.6720   -2.6040   -0.8600 c3        1 MOL     -0.287148
    145 C46        -9.3330   -3.0540   -2.1700 c3        1 MOL      0.022555
    146 C47       -10.5420   -2.2280   -2.6820 c3        1 MOL     -0.116931
    147 C48       -10.0020   -0.9590   -3.3230 c3        1 MOL     -0.005659
    148 N13       -11.1010   -0.3570   -4.1060 n4        1 MOL     -0.098980
    149 H67        -7.2150   -3.4720    1.5940 hn        1 MOL      0.274298
    150 H68        -7.3090   -4.2930   -0.6010 h1        1 MOL      0.072469
    151 H69        -8.6180   -1.5150   -0.8370 hc        1 MOL      0.098177
    152 H70        -9.3980   -2.9280   -0.1170 hc        1 MOL      0.098177
    153 H71        -9.5920   -4.1150   -2.1790 hc        1 MOL      0.060171
    154 H72        -8.6120   -3.1380   -2.9910 hc        1 MOL      0.060171
    155 H73       -11.2540   -2.0140   -1.8850 hc        1 MOL      0.035828
    156 H74       -11.0230   -2.8260   -3.4610 hc        1 MOL      0.035828
    157 H75        -9.1500   -1.2430   -3.9360 hx        1 MOL      0.126619
    158 H76        -9.7580   -0.2050   -2.5630 hx        1 MOL      0.126619
    159 H77       -11.4510   -0.9690   -4.8300 hn        1 MOL      0.198029
    160 H78       -11.8930   -0.1480   -3.5100 hn        1 MOL      0.198029
    161 H79       -10.8620    0.5670   -4.4250 hn        1 MOL      0.198029
    162 N14        -4.8770   -3.1480   -1.3340 n         1 MOL     -0.313655
    163 C49        -3.7080   -2.5780   -2.0440 c3        1 MOL      0.052822
    164 C50        -2.5540   -2.4270   -1.0300 c         1 MOL      0.389113
    165 O22        -2.2580   -1.3330   -0.6200 o         1 MOL     -0.569323
    166 C51        -3.3970   -3.3050   -3.3380 c3        1 MOL     -0.254900
    167 C52        -2.2400   -2.7340   -4.1420 c3        1 MOL     -0.021384
    168 C53        -2.3490   -1.2600   -4.2500 c         1 MOL      0.620741
    169 O23        -2.9010   -0.7020   -5.2490 o         1 MOL     -0.665336
    170 O24        -1.7230   -0.6230   -3.3160 o         1 MOL     -0.665336
    171 H80        -4.6510   -3.8670   -0.6540 hn        1 MOL      0.279876
    172 H81        -3.9280   -1.5510   -2.3280 h1        1 MOL      0.206637
    173 H82        -4.2900   -3.1510   -3.9470 hc        1 MOL      0.070269
    174 H83        -3.2610   -4.3820   -3.2290 hc        1 MOL      0.070269
    175 H84        -2.3630   -3.2390   -5.1060 hc        1 MOL      0.010359
    176 H85        -1.3040   -3.1170   -3.7350 hc        1 MOL      0.010359
    177 N15        -1.9180   -3.5510   -0.5620 n         1 MOL     -0.290985
    178 C54        -2.1640   -4.9520   -0.8220 c3        1 MOL     -0.188529
    179 H86        -1.6000   -5.5570   -0.1120 h1        1 MOL      0.077523
    180 H87        -3.2280   -5.1610   -0.7130 h1        1 MOL      0.077523
    181 H88        -1.8480   -5.1950   -1.8370 h1        1 MOL      0.077523
    182 H89        -1.1090   -3.3840    0.0270 hn        1 MOL      0.343319
    183 Ca1        -0.4160    0.5150   -1.3170 Ca        1 MOL      1.760358
    184 O25        -2.7370    1.7830   -1.8340 oh        1 MOL     -0.950305
    185 H90        -2.6640    2.7270   -1.7420 ho        1 MOL      0.453288
    186 H91        -3.5710    1.5670   -1.4180 ho        1 MOL      0.453288
    187 O26         1.3670   -0.3360   -3.2900 oh        1 MOL     -0.950305
    188 H92         2.2840   -0.1110   -3.1550 ho        1 MOL      0.453288
    189 H93         1.3450   -0.7610   -4.1530 ho        1 MOL      0.453288
@<TRIPOS>BOND
     1    1    2 1   
     2    1    4 1   
     3    1    5 1   
     4    1    6 1   
     5    2    3 2   
     6    2    7 1   
     7    7    8 1   
     8    7   15 1   
     9    8    9 1   
    10    8   11 1   
    11    8   16 1   
    12    9   10 2   
    13    9   19 1   
    14   11   12 1   
    15   11   17 1   
    16   11   18 1   
    17   12   13 1   
    18   12   14 1   
    19   19   20 1   
    20   19   28 1   
    21   20   21 1   
    22   20   23 1   
    23   20   29 1   
    24   21   22 2   
    25   21   41 1   
    26   23   24 1   
    27   23   30 1   
    28   23   31 1   
    29   24   25 1   
    30   24   32 1   
    31   24   33 1   
    32   25   26 1   
    33   25   34 1   
    34   25   35 1   
    35   26   27 1   
    36   26   36 1   
    37   26   37 1   
    38   27   38 1   
    39   27   39 1   
    40   27   40 1   
    41   41   42 1   
    42   41   49 1   
    43   42   43 1   
    44   42   45 1   
    45   42   50 1   
    46   43   44 2   
    47   43   53 1   
    48   45   46 1   
    49   45   51 1   
    50   45   52 1   
    51   46   47 1   
    52   46   48 1   
    53   53   54 1   
    54   53   57 1   
    55   54   55 1   
    56   54   58 1   
    57   54   59 1   
    58   55   56 2   
    59   55   60 1   
    60   60   61 1   
    61   60   68 1   
    62   61   62 1   
    63   61   64 1   
    64   61   69 1   
    65   62   63 2   
    66   62   72 1   
    67   64   65 1   
    68   64   70 1   
    69   64   71 1   
    70   65   66 1   
    71   65   67 1   
    72   72   73 1   
    73   72   76 1   
    74   73   74 1   
    75   73   77 1   
    76   73   78 1   
    77   74   75 2   
    78   74   79 1   
    79   79   80 1   
    80   79   86 1   
    81   80   81 1   
    82   80   83 1   
    83   80   87 1   
    84   81   82 2   
    85   81   93 1   
    86   83   84 1   
    87   83   85 1   
    88   83   88 1   
    89   84   90 1   
    90   84   91 1   
    91   84   92 1   
    92   85   89 1   
    93   93   94 1   
    94   93  101 1   
    95   94   95 1   
    96   94   97 1   
    97   94  102 1   
    98   95   96 2   
    99   95  112 1   
   100   97   98 1   
   101   97   99 1   
   102   97  103 1   
   103   98  100 1   
   104   98  104 1   
   105   98  105 1   
   106   99  106 1   
   107   99  107 1   
   108   99  108 1   
   109  100  109 1   
   110  100  110 1   
   111  100  111 1   
   112  112  113 1   
   113  112  119 1   
   114  113  114 1   
   115  113  116 1   
   116  113  120 1   
   117  114  115 2   
   118  114  126 1   
   119  116  117 1   
   120  116  118 1   
   121  116  121 1   
   122  117  123 1   
   123  117  124 1   
   124  117  125 1   
   125  118  122 1   
   126  126  127 1   
   127  126  133 1   
   128  127  128 1   
   129  127  130 1   
   130  127  134 1   
   131  128  129 2   
   132  128  140 1   
   133  130  131 1   
   134  130  132 1   
   135  130  135 1   
   136  131  137 1   
   137  131  138 1   
   138  131  139 1   
   139  132  136 1   
   140  140  141 1   
   141  140  149 1   
   142  141  142 1   
   143  141  144 1   
   144  141  150 1   
   145  142  143 2   
   146  142  162 1   
   147  144  145 1   
   148  144  151 1   
   149  144  152 1   
   150  145  146 1   
   151  145  153 1   
   152  145  154 1   
   153  146  147 1   
   154  146  155 1   
   155  146  156 1   
   156  147  148 1   
   157  147  157 1   
   158  147  158 1   
   159  148  159 1   
   160  148  160 1   
   161  148  161 1   
   162  162  163 1   
   163  162  171 1   
   164  163  164 1   
   165  163  166 1   
   166  163  172 1   
   167  164  165 2   
   168  164  177 1   
   169  166  167 1   
   170  166  173 1   
   171  166  174 1   
   172  167  168 1   
   173  167  175 1   
   174  167  176 1   
   175  168  169 1   
   176  168  170 1   
   177  177  178 1   
   178  177  182 1   
   179  178  179 1   
   180  178  180 1   
   181  178  181 1   
   182  184  185 1   
   183  184  186 1   
   184  187  188 1   
   185  187  189 1   
@<TRIPOS>SUBSTRUCTURE
     1 MOL         1 TEMP              0 ****  ****    0 ROOT
