@<TRIPOS>MOLECULE
MOL
  182   178     1     0     0
SMALL
resp


@<TRIPOS>ATOM
      1 C1         -0.0910   -2.7310    6.3590 c3        1 MOL     -0.406231
      2 C2          0.0780   -2.9560    4.7900 c         1 MOL      0.748356
      3 O1         -0.8880   -2.8260    4.0480 o         1 MOL     -0.584711
      4 H1         -0.4790   -1.7290    6.5420 hc        1 MOL      0.110983
      5 H2         -0.7870   -3.4680    6.7600 hc        1 MOL      0.110983
      6 H3          0.8760   -2.8410    6.8490 hc        1 MOL      0.110983
      7 N1          1.2950   -3.1170    4.3700 n         1 MOL     -0.562707
      8 C3          1.6040   -2.9160    2.8990 c3        1 MOL      0.075639
      9 C4          1.6790   -4.2510    2.0660 c         1 MOL      0.716714
     10 O2          2.0180   -5.3030    2.5210 o         1 MOL     -0.576379
     11 C5          2.9880   -2.2440    2.9300 c3        1 MOL      0.097988
     12 C6          3.3600   -1.5500    1.6470 c         1 MOL      0.647000
     13 O3          3.9120   -0.4120    1.5950 o         1 MOL     -0.714796
     14 O4          3.1420   -2.1610    0.5980 o         1 MOL     -0.714796
     15 H4          2.0340   -3.1340    5.0610 hn        1 MOL      0.331377
     16 H5          0.9020   -2.1970    2.4740 h1        1 MOL     -0.234783
     17 H6          3.7640   -2.9150    3.2990 hc        1 MOL     -0.011103
     18 H7          2.9630   -1.3850    3.6000 hc        1 MOL     -0.011103
     19 N2          1.2410   -4.2150    0.7690 n         1 MOL     -0.322384
     20 C7          1.2220   -5.3890   -0.2740 c3        1 MOL     -0.133144
     21 C8          2.4690   -5.4990   -1.1480 c         1 MOL      0.614181
     22 O5          2.6510   -6.4910   -1.8220 o         1 MOL     -0.562977
     23 C9         -0.0660   -5.3590   -1.1740 c3        1 MOL      0.145592
     24 C10        -0.3770   -6.6350   -2.0070 c3        1 MOL     -0.204159
     25 C11        -1.8150   -6.3840   -2.5210 c3        1 MOL      0.065382
     26 C12        -2.3630   -7.5920   -3.3380 c3        1 MOL     -0.040445
     27 N3         -3.7520   -7.2980   -3.7380 n4        1 MOL     -0.213146
     28 H8          0.9430   -3.3230    0.4020 hn        1 MOL      0.067888
     29 H9          1.1270   -6.2490    0.3830 h1        1 MOL      0.120990
     30 H10         0.1140   -4.4840   -1.7940 hc        1 MOL     -0.018875
     31 H11        -0.8830   -5.2000   -0.4640 hc        1 MOL     -0.018875
     32 H12        -0.4230   -7.5290   -1.3820 hc        1 MOL      0.088235
     33 H13         0.2970   -6.8870   -2.8290 hc        1 MOL      0.088235
     34 H14        -2.0450   -5.4650   -3.0640 hc        1 MOL      0.016931
     35 H15        -2.4900   -6.4480   -1.6740 hc        1 MOL      0.016931
     36 H16        -2.3930   -8.4000   -2.5940 hx        1 MOL      0.086705
     37 H17        -1.6720   -7.7500   -4.1570 hx        1 MOL      0.086705
     38 H18        -3.9620   -7.8210   -4.5850 hn        1 MOL      0.244962
     39 H19        -4.4100   -7.6510   -3.0660 hn        1 MOL      0.244962
     40 H20        -3.8780   -6.3080   -3.9170 hn        1 MOL      0.244962
     41 N4          3.3930   -4.5190   -1.0630 n         1 MOL     -0.441487
     42 C13         4.5880   -4.5180   -1.8550 c3        1 MOL      0.073673
     43 C14         5.8760   -4.1450   -1.1080 c         1 MOL      0.435251
     44 O6          6.9530   -4.1790   -1.6910 o         1 MOL     -0.530840
     45 C15         4.3750   -3.6160   -3.0840 c3        1 MOL     -0.204491
     46 C16         3.8860   -2.1790   -2.6780 c         1 MOL      0.757964
     47 O7          4.6980   -1.4570   -2.0800 o         1 MOL     -0.722542
     48 O8          2.7450   -1.8320   -2.8940 o         1 MOL     -0.722542
     49 H21         3.1100   -3.6610   -0.6330 hn        1 MOL      0.299179
     50 H22         4.7940   -5.5100   -2.2590 h1        1 MOL      0.100460
     51 H23         3.6420   -4.0470   -3.7660 hc        1 MOL      0.058983
     52 H24         5.2820   -3.5080   -3.6910 hc        1 MOL      0.058983
     53 N5          5.6220   -3.7240    0.1230 n         1 MOL     -0.178690
     54 C17         6.5750   -3.4510    1.1690 c3        1 MOL     -0.211639
     55 C18         7.0840   -1.9790    1.2600 c         1 MOL      0.488940
     56 O9          7.7070   -1.6640    2.2580 o         1 MOL     -0.584744
     57 H25         4.6520   -3.5340    0.3060 hn        1 MOL      0.108627
     58 H26         7.4290   -4.1230    1.0760 h1        1 MOL      0.129628
     59 H27         6.1290   -3.7140    2.1340 h1        1 MOL      0.129628
     60 N6          6.7660   -1.0790    0.3860 n         1 MOL     -0.016570
     61 C19         7.4560    0.2800    0.3550 c3        1 MOL     -0.162991
     62 C20         6.5380    1.4900    0.3090 c         1 MOL      0.672455
     63 O10         5.4020    1.4030   -0.2140 o         1 MOL     -0.563961
     64 C21         8.4450    0.1540   -0.8100 c3        1 MOL     -0.044452
     65 C22         7.9750    0.8970   -1.9750 c         1 MOL      0.551660
     66 N7          7.0770    0.3580   -2.7820 n         1 MOL     -0.681926
     67 O11         8.5270    1.9350   -2.3470 o         1 MOL     -0.584531
     68 H28         6.0920   -1.3450   -0.3190 hn        1 MOL      0.089506
     69 H29         8.0680    0.4790    1.2290 h1        1 MOL      0.095396
     70 H30         8.6810   -0.8830   -1.0260 hc        1 MOL      0.052521
     71 H31         9.3580    0.6820   -0.5220 hc        1 MOL      0.052521
     72 H32         6.5170   -0.4560   -2.5650 hn        1 MOL      0.333568
     73 H33         6.9710    0.8020   -3.6800 hn        1 MOL      0.333568
     74 N8          7.0480    2.6500    0.7200 n         1 MOL     -0.504082
     75 C23         6.4730    3.9230    0.2660 c3        1 MOL     -0.071104
     76 C24         5.1240    4.3040    0.8030 c         1 MOL      0.566421
     77 O12         4.9070    4.3210    2.0000 o         1 MOL     -0.495454
     78 H34         8.0120    2.7650    1.0000 hn        1 MOL      0.359520
     79 H35         6.3560    3.9440   -0.8160 h1        1 MOL      0.080794
     80 H36         7.2640    4.6620    0.3900 h1        1 MOL      0.080794
     81 N9          4.1520    4.5750   -0.0410 n         1 MOL     -0.428495
     82 C25         2.7420    4.6760    0.3010 c3        1 MOL     -0.096555
     83 C26         2.1060    3.4310    0.8820 c         1 MOL      0.513924
     84 O13         2.6200    2.3780    0.5570 o         1 MOL     -0.455127
     85 C27         1.9580    5.2010   -0.8980 c3        1 MOL     -0.037173
     86 C28         2.2390    6.6600   -1.2000 ca        1 MOL      0.032253
     87 C29         1.8390    7.7420   -0.3600 ca        1 MOL     -0.149138
     88 C30         3.0240    6.8540   -2.3430 ca        1 MOL     -0.149138
     89 C31         2.3200    9.0760   -0.6610 ca        1 MOL     -0.260003
     90 C32         3.4600    8.1520   -2.6280 ca        1 MOL     -0.260003
     91 C33         3.1520    9.2220   -1.7960 ca        1 MOL      0.354106
     92 O14         3.7110   10.4540   -2.0860 oh        1 MOL     -0.499167
     93 H37         4.3190    4.5000   -1.0340 hn        1 MOL      0.278658
     94 H38         2.7050    5.4640    1.0580 h1        1 MOL      0.106499
     95 H39         0.9150    5.1070   -0.5900 hc        1 MOL      0.032624
     96 H40         1.9900    4.5500   -1.7740 hc        1 MOL      0.032624
     97 H41         1.2770    7.5380    0.5400 ha        1 MOL      0.134012
     98 H42         3.3680    6.0290   -2.9390 ha        1 MOL      0.134012
     99 H43         1.8720    9.9360   -0.1840 ha        1 MOL      0.161926
    100 H44         4.0710    8.3610   -3.4870 ha        1 MOL      0.161926
    101 H45         3.6360   11.0300   -1.3270 ho        1 MOL      0.373355
    102 N10         1.0580    3.4020    1.7370 n         1 MOL     -0.499466
    103 C34         0.3320    2.1970    2.2770 c3        1 MOL      0.131453
    104 C35        -0.0210    1.0380    1.3250 c         1 MOL      0.033840
    105 O15         0.8550    0.2670    0.9070 o         1 MOL     -0.048124
    106 C36         0.9960    1.6910    3.5300 c3        1 MOL      0.081624
    107 C37         0.2560    0.5250    4.2630 c3        1 MOL      0.030547
    108 C38         1.5110    2.8200    4.4540 c3        1 MOL     -0.370470
    109 C39        -0.9630    1.0520    5.0650 c3        1 MOL     -0.470313
    110 H46         0.6380    4.3040    1.9380 hn        1 MOL      0.302197
    111 H47        -0.6060    2.6530    2.6060 h1        1 MOL      0.059845
    112 H48         1.9300    1.2660    3.1740 hc        1 MOL      0.043766
    113 H49         0.8860    0.0310    4.9960 hc        1 MOL      0.063079
    114 H50         0.0450   -0.2620    3.5350 hc        1 MOL      0.063079
    115 H51         1.9200    2.5090    5.4230 hc        1 MOL      0.105043
    116 H52         2.3840    3.3160    4.0480 hc        1 MOL      0.105043
    117 H53         0.7740    3.5960    4.6610 hc        1 MOL      0.105043
    118 H54        -0.7320    1.5910    5.9850 hc        1 MOL      0.126051
    119 H55        -1.6660    1.5300    4.3840 hc        1 MOL      0.126051
    120 H56        -1.5760    0.1810    5.3280 hc        1 MOL      0.126051
    121 N11        -1.3050    0.7500    1.0640 n         1 MOL     -0.199286
    122 C40        -1.7920   -0.3660    0.2210 c3        1 MOL     -0.354495
    123 C41        -3.2390   -0.2940   -0.3250 c         1 MOL      0.790217
    124 O16        -3.6320   -0.9720   -1.2840 o         1 MOL     -0.586977
    125 C42        -1.6350   -1.6830    1.0350 c3        1 MOL      0.520632
    126 O17        -2.3220   -1.5740    2.3010 oh        1 MOL     -0.682537
    127 H57        -1.9730    1.4030    1.4330 hn        1 MOL      0.257775
    128 H58        -1.2960   -0.5110   -0.7340 h1        1 MOL      0.065716
    129 H59        -0.5950   -1.7560    1.3280 h1        1 MOL     -0.028721
    130 H60        -1.9580   -2.5470    0.4490 h1        1 MOL     -0.028721
    131 H61        -1.8380   -2.0210    3.0080 ho        1 MOL      0.413256
    132 N12        -4.1490    0.5200    0.2190 n         1 MOL     -0.609857
    133 C43        -5.5790    0.5620   -0.1500 c3        1 MOL      0.146564
    134 C44        -5.7510    1.2370   -1.4940 c         1 MOL      0.555909
    135 O18        -4.9680    2.0700   -1.9140 o         1 MOL     -0.581620
    136 C45        -6.2760    1.3030    1.0050 c3        1 MOL     -0.310390
    137 H62        -3.8250    1.2580    0.8290 hn        1 MOL      0.302058
    138 H63        -6.0420   -0.4100   -0.2840 h1        1 MOL      0.084781
    139 H64        -5.8760    2.2990    1.1680 hc        1 MOL      0.105449
    140 H65        -7.3370    1.3790    0.7640 hc        1 MOL      0.105449
    141 H66        -6.2330    0.7450    1.9360 hc        1 MOL      0.105449
    142 N13        -6.7250    0.8910   -2.3270 n         1 MOL     -0.534522
    143 C46        -7.9600    0.0800   -1.9740 c3        1 MOL      0.401669
    144 C47        -9.2090    0.8140   -2.6510 c         1 MOL      0.361954
    145 O19        -9.1180    1.1570   -3.8020 o         1 MOL     -0.523617
    146 C48        -7.7320   -1.2800   -2.6320 c3        1 MOL     -0.289527
    147 H67        -6.6950    1.3770   -3.2130 hn        1 MOL      0.313769
    148 H68        -8.1490    0.0340   -0.9030 h1        1 MOL     -0.056665
    149 H69        -7.7090   -1.1600   -3.7120 hc        1 MOL      0.073756
    150 H70        -6.7500   -1.6570   -2.3410 hc        1 MOL      0.073756
    151 H71        -8.5470   -1.9230   -2.2960 hc        1 MOL      0.073756
    152 N14       -10.3150    1.0040   -1.9620 n         1 MOL     -0.283945
    153 C49       -10.5820    0.6380   -0.5110 c3        1 MOL     -0.350550
    154 C50        -9.9970    1.7640    0.4140 c         1 MOL      0.417001
    155 O20        -9.4860    1.5470    1.4940 o         1 MOL     -0.454476
    156 C51       -12.0730    0.4590   -0.3290 c3        1 MOL     -0.142204
    157 C52       -12.3940    0.1620    1.1150 c3        1 MOL     -0.113150
    158 C53       -13.7710   -0.2820    1.3430 c         1 MOL      0.668634
    159 O21       -13.9980   -1.5710    1.4220 o         1 MOL     -0.660230
    160 O22       -14.6200    0.6280    1.4210 o         1 MOL     -0.660230
    161 H72       -10.9420    1.6590   -2.4000 hn        1 MOL      0.277609
    162 H73       -10.1450   -0.3090   -0.1880 h1        1 MOL      0.239104
    163 H74       -12.4010   -0.3690   -0.9550 hc        1 MOL      0.098911
    164 H75       -12.6860    1.2870   -0.6840 hc        1 MOL      0.098911
    165 H76       -12.2710    1.0020    1.7910 hc        1 MOL      0.042703
    166 H77       -11.8100   -0.6830    1.4630 hc        1 MOL      0.042703
    167 N15       -10.0390    3.0610   -0.0810 n         1 MOL     -0.249862
    168 C54        -9.3110    4.2080    0.3690 c3        1 MOL     -0.037386
    169 H78        -9.9590    4.8300    0.9860 h1        1 MOL      0.050603
    170 H79        -8.4510    3.8850    0.9570 h1        1 MOL      0.050603
    171 H80        -8.9690    4.7830   -0.4920 h1        1 MOL      0.050603
    172 H81       -10.4440    3.1750   -0.9980 hn        1 MOL      0.249398
    173 Ca1         2.8060    0.1320   -0.7160 Ca        1 MOL      1.706942
    174 O23         0.8200   -2.0480   -1.3320 oh        1 MOL     -0.879047
    175 H82         0.0100   -2.1220   -1.8410 ho        1 MOL      0.432491
    176 H83         1.5160   -2.2080   -1.9640 ho        1 MOL      0.432491
    177 O24         0.5320    0.9760   -2.0400 oh        1 MOL     -0.879047
    178 H84         0.0500    0.5960   -2.7780 ho        1 MOL      0.432491
    179 H85        -0.0190    1.6890   -1.7360 ho        1 MOL      0.432491
    180 O25         3.3740    1.6610   -2.8110 oh        1 MOL     -0.879047
    181 H86         2.7220    1.7130   -3.5180 ho        1 MOL      0.432491
    182 H87         4.1050    2.1880   -3.1360 ho        1 MOL      0.432491
@<TRIPOS>BOND
     1    1    2 1   
     2    1    4 1   
     3    1    5 1   
     4    1    6 1   
     5    2    3 2   
     6    2    7 1   
     7    7    8 1   
     8    7   15 1   
     9    8    9 1   
    10    8   11 1   
    11    8   16 1   
    12    9   10 2   
    13    9   19 1   
    14   11   12 1   
    15   11   17 1   
    16   11   18 1   
    17   12   13 1   
    18   12   14 1   
    19   19   20 1   
    20   19   28 1   
    21   20   21 1   
    22   20   23 1   
    23   20   29 1   
    24   21   22 2   
    25   21   41 1   
    26   23   24 1   
    27   23   30 1   
    28   23   31 1   
    29   24   25 1   
    30   24   32 1   
    31   24   33 1   
    32   25   26 1   
    33   25   34 1   
    34   25   35 1   
    35   26   27 1   
    36   26   36 1   
    37   26   37 1   
    38   27   38 1   
    39   27   39 1   
    40   27   40 1   
    41   41   42 1   
    42   41   49 1   
    43   42   43 1   
    44   42   45 1   
    45   42   50 1   
    46   43   44 2   
    47   43   53 1   
    48   45   46 1   
    49   45   51 1   
    50   45   52 1   
    51   46   47 1   
    52   46   48 1   
    53   53   54 1   
    54   53   57 1   
    55   54   55 1   
    56   54   58 1   
    57   54   59 1   
    58   55   56 2   
    59   55   60 1   
    60   60   61 1   
    61   60   68 1   
    62   61   62 1   
    63   61   64 1   
    64   61   69 1   
    65   62   63 2   
    66   62   74 1   
    67   64   65 1   
    68   64   70 1   
    69   64   71 1   
    70   65   66 1   
    71   65   67 2   
    72   66   72 1   
    73   66   73 1   
    74   74   75 1   
    75   74   78 1   
    76   75   76 1   
    77   75   79 1   
    78   75   80 1   
    79   76   77 2   
    80   76   81 1   
    81   81   82 1   
    82   81   93 1   
    83   82   83 1   
    84   82   85 1   
    85   82   94 1   
    86   83   84 2   
    87   83  102 1   
    88   85   86 1   
    89   85   95 1   
    90   85   96 1   
    91   86   87 ar  
    92   86   88 ar  
    93   87   89 ar  
    94   87   97 1   
    95   88   90 ar  
    96   88   98 1   
    97   89   91 ar  
    98   89   99 1   
    99   90   91 ar  
   100   90  100 1   
   101   91   92 1   
   102   92  101 1   
   103  102  103 1   
   104  102  110 1   
   105  103  104 1   
   106  103  106 1   
   107  103  111 1   
   108  104  105 2   
   109  104  121 1   
   110  106  107 1   
   111  106  108 1   
   112  106  112 1   
   113  107  109 1   
   114  107  113 1   
   115  107  114 1   
   116  108  115 1   
   117  108  116 1   
   118  108  117 1   
   119  109  118 1   
   120  109  119 1   
   121  109  120 1   
   122  121  122 1   
   123  121  127 1   
   124  122  123 1   
   125  122  125 1   
   126  122  128 1   
   127  123  124 2   
   128  123  132 1   
   129  125  126 1   
   130  125  129 1   
   131  125  130 1   
   132  126  131 1   
   133  132  133 1   
   134  132  137 1   
   135  133  134 1   
   136  133  136 1   
   137  133  138 1   
   138  134  135 2   
   139  134  142 1   
   140  136  139 1   
   141  136  140 1   
   142  136  141 1   
   143  142  143 1   
   144  142  147 1   
   145  143  144 1   
   146  143  146 1   
   147  143  148 1   
   148  144  145 2   
   149  144  152 1   
   150  146  149 1   
   151  146  150 1   
   152  146  151 1   
   153  152  153 1   
   154  152  161 1   
   155  153  154 1   
   156  153  156 1   
   157  153  162 1   
   158  154  155 2   
   159  154  167 1   
   160  156  157 1   
   161  156  163 1   
   162  156  164 1   
   163  157  158 1   
   164  157  165 1   
   165  157  166 1   
   166  158  159 1   
   167  158  160 1   
   168  167  168 1   
   169  167  172 1   
   170  168  169 1   
   171  168  170 1   
   172  168  171 1   
   173  174  175 1   
   174  174  176 1   
   175  177  178 1   
   176  177  179 1   
   177  180  181 1   
   178  180  182 1   
@<TRIPOS>SUBSTRUCTURE
     1 MOL         1 TEMP              0 ****  ****    0 ROOT
