@<TRIPOS>MOLECULE
MOL
  178   175     1     0     0
SMALL
resp


@<TRIPOS>ATOM
      1 C1          5.7560   -1.8650    3.6320 c3        1 MOL     -0.423102
      2 C2          6.7990   -0.8680    3.1970 c         1 MOL      0.702017
      3 O1          6.5070    0.1370    2.5470 o         1 MOL     -0.639411
      4 H1          6.1840   -2.8670    3.6170 hc        1 MOL      0.121175
      5 H2          5.4250   -1.6270    4.6430 hc        1 MOL      0.121175
      6 H3          4.9060   -1.8230    2.9510 hc        1 MOL      0.121175
      7 N1          8.1360   -1.1440    3.3390 n         1 MOL     -0.519621
      8 C3          9.3000   -0.3350    2.8810 c3        1 MOL      0.315222
      9 C4          9.3040   -0.0950    1.3380 c         1 MOL      0.635650
     10 O2          9.5690   -1.0620    0.6190 o         1 MOL     -0.503026
     11 C5         10.7100   -0.8780    3.5130 c3        1 MOL     -0.409344
     12 C6         10.8360   -2.4030    3.2910 c         1 MOL      0.678597
     13 O3         11.7630   -2.8970    2.5300 o         1 MOL     -0.681940
     14 O4          9.9560   -3.2100    3.7200 o         1 MOL     -0.681940
     15 H4          8.4600   -2.0080    3.7520 hn        1 MOL      0.245940
     16 H5          9.1760    0.6670    3.2940 h1        1 MOL     -0.061164
     17 H6         10.6240   -0.5670    4.5530 hc        1 MOL      0.078049
     18 H7         11.5280   -0.3460    3.0410 hc        1 MOL      0.078049
     19 N2          8.8960    1.0960    0.8790 n         1 MOL     -0.743165
     20 C7          8.8630    1.4880   -0.5820 c3        1 MOL      0.312882
     21 C8          7.5840    1.0860   -1.3450 c         1 MOL      0.306984
     22 O5          7.5330    1.3230   -2.6010 o         1 MOL     -0.520130
     23 C9          9.1040    3.0580   -0.5240 c3        1 MOL     -0.260829
     24 H8          8.4420    1.7850    1.4710 hn        1 MOL      0.336192
     25 H9          9.7210    1.0360   -1.0820 h1        1 MOL      0.062912
     26 H10         8.3420    3.6320   -0.0000 hc        1 MOL      0.065980
     27 H11        10.0880    3.2950   -0.1470 hc        1 MOL      0.065980
     28 H12         9.0900    3.3540   -1.5810 hc        1 MOL      0.065980
     29 N3          6.5090    0.5920   -0.6910 n         1 MOL     -0.316754
     30 C10         5.1190    0.3320   -1.2250 c3        1 MOL      0.336010
     31 C11         4.5850    1.4260   -2.1470 c         1 MOL      0.410052
     32 O6          4.0250    1.1160   -3.2150 o         1 MOL     -0.454411
     33 C12         5.0590   -1.1490   -1.7980 c3        1 MOL     -0.220916
     34 C13         3.6750   -1.6810   -2.0560 c         1 MOL      0.772109
     35 O7          3.5460   -2.4100   -3.1140 o         1 MOL     -0.764335
     36 O8          2.6640   -1.5040   -1.3240 o         1 MOL     -0.764335
     37 H13         6.5590    0.4880    0.3170 hn        1 MOL      0.226184
     38 H14         4.4300    0.3660   -0.3760 h1        1 MOL     -0.024295
     39 H15         5.5490   -1.7880   -1.0630 hc        1 MOL      0.053216
     40 H16         5.5250   -1.1310   -2.7910 hc        1 MOL      0.053216
     41 N4          4.7860    2.7250   -1.8240 n         1 MOL     -0.301846
     42 C14         4.5970    3.9110   -2.6630 c3        1 MOL     -0.200134
     43 C15         3.2180    4.3080   -3.0940 c         1 MOL      0.453264
     44 O9          3.0250    5.2800   -3.8560 o         1 MOL     -0.549630
     45 H17         5.1190    2.8950   -0.8810 hn        1 MOL      0.227310
     46 H18         5.2420    3.7740   -3.5320 h1        1 MOL      0.129595
     47 H19         5.0540    4.7350   -2.1170 h1        1 MOL      0.129595
     48 N5          2.1450    3.5600   -2.7340 n         1 MOL     -0.164069
     49 C16         0.7740    3.9160   -3.0420 c3        1 MOL      0.065613
     50 C17         0.0340    4.5600   -1.8020 c         1 MOL      0.529956
     51 O10         0.3900    4.4680   -0.6630 o         1 MOL     -0.510858
     52 C18         0.0550    2.6850   -3.5440 c3        1 MOL     -0.193889
     53 C19         0.7890    1.9540   -4.6180 c         1 MOL      0.697204
     54 N6          1.3030    0.8150   -4.3220 n         1 MOL     -0.826351
     55 O11         0.9630    2.5570   -5.6900 o         1 MOL     -0.607775
     56 H20         2.3200    2.7890   -2.1030 hn        1 MOL      0.161938
     57 H21         0.7950    4.6490   -3.8510 h1        1 MOL      0.039647
     58 H22        -0.9230    2.9890   -3.8870 hc        1 MOL      0.053531
     59 H23        -0.1120    2.0040   -2.7100 hc        1 MOL      0.053531
     60 H24         1.2700    0.4050   -3.4090 hn        1 MOL      0.389680
     61 H25         1.9690    0.3990   -4.9710 hn        1 MOL      0.389680
     62 N7         -1.1240    5.1460   -2.1800 n         1 MOL     -0.451212
     63 C20        -1.8520    6.1100   -1.3240 c3        1 MOL     -0.312257
     64 C21        -2.7850    5.5380   -0.2260 c         1 MOL      0.666161
     65 O12        -3.5060    4.6330   -0.5520 o         1 MOL     -0.412672
     66 H26        -1.4220    5.1310   -3.1530 hn        1 MOL      0.346136
     67 H27        -2.4750    6.6850   -2.0010 h1        1 MOL      0.117494
     68 H28        -1.0960    6.8410   -1.0220 h1        1 MOL      0.117494
     69 N8         -2.7110    6.1180    0.9820 n         1 MOL     -0.356811
     70 C22        -3.7970    5.8880    1.9420 c3        1 MOL     -0.669848
     71 C23        -3.7470    4.5040    2.5310 c         1 MOL      0.729465
     72 O13        -4.8050    4.0080    2.9080 o         1 MOL     -0.582785
     73 C24        -3.9210    7.0210    3.0220 c3        1 MOL      0.640625
     74 C25        -2.7590    7.0590    3.8800 c3        1 MOL     -0.418610
     75 O14        -4.0710    8.2190    2.4030 oh        1 MOL     -0.641103
     76 H29        -1.9680    6.7810    1.1320 hn        1 MOL      0.268411
     77 H30        -4.7460    5.9380    1.4020 h1        1 MOL      0.235628
     78 H31        -4.7970    6.8720    3.6400 h1        1 MOL      0.023106
     79 H32        -3.3230    8.3930    1.8220 ho        1 MOL      0.383172
     80 H33        -1.9250    7.2180    3.1860 hc        1 MOL      0.095726
     81 H34        -2.8940    7.8980    4.5600 hc        1 MOL      0.095726
     82 H35        -2.6120    6.1240    4.4150 hc        1 MOL      0.095726
     83 N9         -2.5570    3.9280    2.6880 n         1 MOL     -0.458849
     84 C26        -2.3840    2.5610    3.1270 c3        1 MOL     -0.121103
     85 C27        -1.8580    1.7080    1.9620 c         1 MOL      0.569274
     86 O15        -0.8170    2.0100    1.3660 o         1 MOL     -0.459118
     87 C28        -1.4940    2.3440    4.4000 c3        1 MOL      0.137164
     88 C29        -1.9180    3.2960    5.5600 c3        1 MOL      0.312720
     89 C30        -1.5510    0.8100    4.6880 c3        1 MOL     -0.071068
     90 C31        -3.2950    3.0840    6.1170 c3        1 MOL     -0.382765
     91 H36        -1.7860    4.4980    2.3670 hn        1 MOL      0.304380
     92 H37        -3.3310    2.1350    3.4410 h1        1 MOL      0.116446
     93 H38        -0.4580    2.5440    4.1200 hc        1 MOL     -0.015581
     94 H39        -1.7130    4.3570    5.3740 hc        1 MOL     -0.077015
     95 H40        -1.1380    3.0610    6.2760 hc        1 MOL     -0.077015
     96 H41        -1.0580    0.6720    5.6550 hc        1 MOL      0.008774
     97 H42        -2.5860    0.4760    4.6490 hc        1 MOL      0.008774
     98 H43        -1.0000    0.2180    3.9580 hc        1 MOL      0.008774
     99 H44        -4.0460    2.9540    5.3440 hc        1 MOL      0.082018
    100 H45        -3.2270    2.2570    6.8280 hc        1 MOL      0.082018
    101 H46        -3.3670    4.0650    6.5950 hc        1 MOL      0.082018
    102 N10        -2.6740    0.6260    1.5910 n         1 MOL     -0.570866
    103 C32        -2.3190   -0.3320    0.5220 c3        1 MOL      0.268283
    104 C33        -3.5920   -0.9880   -0.1070 c         1 MOL      0.558428
    105 O16        -3.5580   -2.0990   -0.4010 o         1 MOL     -0.471545
    106 C34        -1.2570   -1.2910    1.1060 c3        1 MOL     -0.063538
    107 C35        -0.5040   -2.0330   -0.0540 c         1 MOL      0.775355
    108 O17        -0.7000   -1.7590   -1.2500 o         1 MOL     -0.768454
    109 O18         0.3440   -2.9580    0.2610 o         1 MOL     -0.768454
    110 H47        -3.5260    0.4760    2.1080 hn        1 MOL      0.282747
    111 H48        -1.7850    0.2380   -0.2440 h1        1 MOL      0.003151
    112 H49        -1.8370   -2.0140    1.6740 hc        1 MOL      0.000344
    113 H50        -0.6180   -0.7600    1.8040 hc        1 MOL      0.000344
    114 N11        -4.7050   -0.2920   -0.2350 n         1 MOL     -0.563605
    115 C36        -6.0920   -0.7220   -0.4930 c3        1 MOL      0.383589
    116 C37        -6.4270   -2.0370    0.2830 c         1 MOL      0.247946
    117 O19        -6.4260   -1.9660    1.5300 o         1 MOL     -0.501889
    118 C38        -7.0450    0.4800   -0.2710 c3        1 MOL     -0.227867
    119 C39        -6.8450    1.6440   -1.2650 ca        1 MOL      0.148615
    120 C40        -6.3860    2.8710   -0.8340 ca        1 MOL     -0.188972
    121 C41        -7.1870    1.4780   -2.6170 ca        1 MOL     -0.188972
    122 C42        -6.2960    3.9570   -1.6910 ca        1 MOL     -0.077053
    123 C43        -7.1950    2.5770   -3.4830 ca        1 MOL     -0.077053
    124 C44        -6.8090    3.8190   -3.0060 ca        1 MOL     -0.153055
    125 H51        -4.6990    0.6960   -0.0400 hn        1 MOL      0.239332
    126 H52        -6.0140   -0.8860   -1.5720 h1        1 MOL     -0.011219
    127 H53        -7.1100    0.8050    0.7720 hc        1 MOL      0.081623
    128 H54        -8.0520    0.1370   -0.5150 hc        1 MOL      0.081623
    129 H55        -5.9850    2.8770    0.1680 ha        1 MOL      0.107980
    130 H56        -7.4440    0.5290   -3.0620 ha        1 MOL      0.107980
    131 H57        -5.8900    4.9320   -1.4890 ha        1 MOL      0.093035
    132 H58        -7.6040    2.5600   -4.4810 ha        1 MOL      0.093035
    133 H59        -6.8630    4.7200   -3.5990 ha        1 MOL      0.108266
    134 N12        -6.6310   -3.1650   -0.4310 n         1 MOL     -0.085608
    135 C45        -6.9850   -4.4650    0.2090 c3        1 MOL      0.211053
    136 C46        -5.9390   -5.1360    1.0530 c         1 MOL      0.129932
    137 O20        -6.2640   -5.8390    1.9840 o         1 MOL     -0.472944
    138 C47        -7.3520   -5.3710   -0.9940 c3        1 MOL     -0.019649
    139 C48        -8.0260   -4.4140   -1.9170 c3        1 MOL      0.000830
    140 C49        -7.1180   -3.1890   -1.8290 c3        1 MOL     -0.080207
    141 H60        -7.9370   -4.3620    0.7420 h1        1 MOL      0.030581
    142 H61        -6.5040   -5.7980   -1.5180 hc        1 MOL      0.026887
    143 H62        -8.0730   -6.1420   -0.6970 hc        1 MOL      0.026887
    144 H63        -8.0910   -4.8070   -2.9340 hc        1 MOL      0.008794
    145 H64        -9.0300   -4.2050   -1.5610 hc        1 MOL      0.008794
    146 H65        -6.3220   -3.2590   -2.5710 h1        1 MOL      0.047132
    147 H66        -7.7150   -2.2900   -2.0020 h1        1 MOL      0.047132
    148 N13        -4.6760   -4.9530    0.7520 n         1 MOL      0.124911
    149 C50        -3.5450   -5.7040    1.3380 c3        1 MOL     -0.587012
    150 C51        -3.3530   -5.5560    2.8580 c         1 MOL      0.609801
    151 O21        -3.2580   -6.5090    3.6510 o         1 MOL     -0.529038
    152 C52        -2.2280   -5.4090    0.6010 c3        1 MOL      0.505412
    153 C53        -2.2890   -5.9560   -0.8480 c3        1 MOL     -0.489869
    154 C54        -0.9920   -5.6220   -1.6410 c         1 MOL      0.786508
    155 O22         0.0990   -5.9520   -1.2050 o         1 MOL     -0.757150
    156 O23        -1.0030   -4.8910   -2.6830 o         1 MOL     -0.757150
    157 H67        -4.5150   -4.3000   -0.0020 hn        1 MOL      0.112066
    158 H68        -3.8160   -6.7570    1.2130 h1        1 MOL      0.180357
    159 H69        -1.3770   -5.8010    1.1630 hc        1 MOL     -0.046381
    160 H70        -1.9330   -4.3640    0.6580 hc        1 MOL     -0.046381
    161 H71        -3.2080   -5.6270   -1.3480 hc        1 MOL      0.090475
    162 H72        -2.3360   -7.0330   -0.6660 hc        1 MOL      0.090475
    163 N14        -3.2130   -4.2310    3.2750 n         1 MOL     -0.286407
    164 C55        -2.7500   -4.1210    4.6610 c3        1 MOL     -0.218721
    165 H73        -3.2950   -3.3220    5.1620 h1        1 MOL      0.092144
    166 H74        -2.9290   -5.0620    5.1800 h1        1 MOL      0.092144
    167 H75        -1.6830   -3.8960    4.6720 h1        1 MOL      0.092144
    168 H76        -3.2380   -3.4600    2.6170 hn        1 MOL      0.252701
    169 Ca1         1.1720   -3.5490   -2.1160 Ca        1 MOL      1.788835
    170 O24         1.6090   -5.3610   -4.0280 oh        1 MOL     -0.852420
    171 H77         1.1390   -6.1610   -4.2290 ho        1 MOL      0.411202
    172 H78         2.4710   -5.4680   -4.4320 ho        1 MOL      0.411202
    173 O25         0.9090   -2.5360   -4.6250 oh        1 MOL     -0.852420
    174 H79         0.4300   -3.2520   -5.0510 ho        1 MOL      0.411202
    175 H80         1.4930   -2.2020   -5.3130 ho        1 MOL      0.411202
    176 O26         3.5680   -4.8630   -1.4360 oh        1 MOL     -0.852420
    177 H81         3.8420   -5.3020   -0.6360 ho        1 MOL      0.411202
    178 H82         4.2940   -4.9950   -2.0420 ho        1 MOL      0.411202
@<TRIPOS>BOND
     1    1    2 1   
     2    1    4 1   
     3    1    5 1   
     4    1    6 1   
     5    2    3 2   
     6    2    7 1   
     7    7    8 1   
     8    7   15 1   
     9    8    9 1   
    10    8   11 1   
    11    8   16 1   
    12    9   10 2   
    13    9   19 1   
    14   11   12 1   
    15   11   17 1   
    16   11   18 1   
    17   12   13 1   
    18   12   14 1   
    19   19   20 1   
    20   19   24 1   
    21   20   21 1   
    22   20   23 1   
    23   20   25 1   
    24   21   22 2   
    25   21   29 1   
    26   23   26 1   
    27   23   27 1   
    28   23   28 1   
    29   29   30 1   
    30   29   37 1   
    31   30   31 1   
    32   30   33 1   
    33   30   38 1   
    34   31   32 2   
    35   31   41 1   
    36   33   34 1   
    37   33   39 1   
    38   33   40 1   
    39   34   35 1   
    40   34   36 1   
    41   41   42 1   
    42   41   45 1   
    43   42   43 1   
    44   42   46 1   
    45   42   47 1   
    46   43   44 2   
    47   43   48 1   
    48   48   49 1   
    49   48   56 1   
    50   49   50 1   
    51   49   52 1   
    52   49   57 1   
    53   50   51 2   
    54   50   62 1   
    55   52   53 1   
    56   52   58 1   
    57   52   59 1   
    58   53   54 1   
    59   53   55 2   
    60   54   60 1   
    61   54   61 1   
    62   62   63 1   
    63   62   66 1   
    64   63   64 1   
    65   63   67 1   
    66   63   68 1   
    67   64   65 2   
    68   64   69 1   
    69   69   70 1   
    70   69   76 1   
    71   70   71 1   
    72   70   73 1   
    73   70   77 1   
    74   71   72 2   
    75   71   83 1   
    76   73   74 1   
    77   73   75 1   
    78   73   78 1   
    79   74   80 1   
    80   74   81 1   
    81   74   82 1   
    82   75   79 1   
    83   83   84 1   
    84   83   91 1   
    85   84   85 1   
    86   84   87 1   
    87   84   92 1   
    88   85   86 2   
    89   85  102 1   
    90   87   88 1   
    91   87   89 1   
    92   87   93 1   
    93   88   90 1   
    94   88   94 1   
    95   88   95 1   
    96   89   96 1   
    97   89   97 1   
    98   89   98 1   
    99   90   99 1   
   100   90  100 1   
   101   90  101 1   
   102  102  103 1   
   103  102  110 1   
   104  103  104 1   
   105  103  106 1   
   106  103  111 1   
   107  104  105 2   
   108  104  114 1   
   109  106  107 1   
   110  106  112 1   
   111  106  113 1   
   112  107  108 1   
   113  107  109 1   
   114  114  115 1   
   115  114  125 1   
   116  115  116 1   
   117  115  118 1   
   118  115  126 1   
   119  116  117 2   
   120  116  134 1   
   121  118  119 1   
   122  118  127 1   
   123  118  128 1   
   124  119  120 ar  
   125  119  121 ar  
   126  120  122 ar  
   127  120  129 1   
   128  121  123 ar  
   129  121  130 1   
   130  122  124 ar  
   131  122  131 1   
   132  123  124 ar  
   133  123  132 1   
   134  124  133 1   
   135  134  135 1   
   136  134  140 1   
   137  135  136 1   
   138  135  138 1   
   139  135  141 1   
   140  136  137 2   
   141  136  148 1   
   142  138  139 1   
   143  138  142 1   
   144  138  143 1   
   145  139  140 1   
   146  139  144 1   
   147  139  145 1   
   148  140  146 1   
   149  140  147 1   
   150  148  149 1   
   151  148  157 1   
   152  149  150 1   
   153  149  152 1   
   154  149  158 1   
   155  150  151 2   
   156  150  163 1   
   157  152  153 1   
   158  152  159 1   
   159  152  160 1   
   160  153  154 1   
   161  153  161 1   
   162  153  162 1   
   163  154  155 1   
   164  154  156 1   
   165  163  164 1   
   166  163  168 1   
   167  164  165 1   
   168  164  166 1   
   169  164  167 1   
   170  170  171 1   
   171  170  172 1   
   172  173  174 1   
   173  173  175 1   
   174  176  177 1   
   175  176  178 1   
@<TRIPOS>SUBSTRUCTURE
     1 MOL         1 TEMP              0 ****  ****    0 ROOT
