@<TRIPOS>MOLECULE
MOL
  192   187     1     0     0
SMALL
resp


@<TRIPOS>ATOM
      1 C1         -4.1140   -4.1700   -3.4040 c3        1 MOL     -0.555756
      2 C2         -4.8610   -3.7410   -2.1840 c         1 MOL      0.871342
      3 O1         -4.3380   -3.5430   -1.1080 o         1 MOL     -0.642410
      4 H1         -3.1280   -3.7080   -3.4070 hc        1 MOL      0.138134
      5 H2         -4.0060   -5.2550   -3.4020 hc        1 MOL      0.138134
      6 H3         -4.6630   -3.8610   -4.2940 hc        1 MOL      0.138134
      7 N1         -6.1240   -3.3370   -2.3110 n         1 MOL     -0.635164
      8 C3         -6.7690   -2.4000   -1.3690 c3        1 MOL      0.281691
      9 C4         -6.0060   -1.0990   -1.2650 c         1 MOL      0.272019
     10 O2         -5.4410   -0.7340   -0.2080 o         1 MOL     -0.454664
     11 C5         -7.4730   -2.9640   -0.0520 c3        1 MOL     -0.156162
     12 C6         -6.8170   -4.1140    0.6270 c         1 MOL      0.716794
     13 O3         -5.9630   -3.9140    1.5160 o         1 MOL     -0.723853
     14 O4         -7.0160   -5.2310    0.1870 o         1 MOL     -0.723853
     15 H4         -6.4630   -3.3800   -3.2620 hn        1 MOL      0.291715
     16 H5         -7.6060   -2.1240   -2.0100 h1        1 MOL      0.019067
     17 H6         -8.4610   -3.2940   -0.3810 hc        1 MOL      0.024355
     18 H7         -7.6240   -2.1100    0.6150 hc        1 MOL      0.024355
     19 N2         -5.8640   -0.5190   -2.4760 n         1 MOL     -0.380902
     20 C7         -5.0990    0.7880   -2.6620 c3        1 MOL      0.002867
     21 C8         -5.7230    2.0390   -2.1070 c         1 MOL      0.466228
     22 O5         -6.1350    2.8630   -2.9020 o         1 MOL     -0.551725
     23 C9         -3.5290    0.6730   -2.5340 c3        1 MOL     -0.041120
     24 C10        -2.8180    1.8280   -3.3680 c3        1 MOL      0.114367
     25 C11        -2.9040   -0.6530   -2.9680 c3        1 MOL      0.078858
     26 C12        -2.8610    2.0020   -4.8830 c3        1 MOL     -0.354711
     27 H8         -6.3570   -1.0020   -3.2200 hn        1 MOL      0.276520
     28 H9         -5.2580    0.8760   -3.7380 h1        1 MOL      0.063350
     29 H10        -3.1440    0.7140   -1.5140 hc        1 MOL     -0.005492
     30 H11        -1.7910    1.8830   -3.0040 hc        1 MOL      0.032575
     31 H12        -3.2370    2.7750   -3.0130 hc        1 MOL      0.032575
     32 H13        -3.3620   -1.4270   -2.3570 hc        1 MOL     -0.028187
     33 H14        -3.1050   -0.9790   -3.9870 hc        1 MOL     -0.028187
     34 H15        -1.8290   -0.7450   -2.8300 hc        1 MOL     -0.028187
     35 H16        -2.6040    1.0750   -5.4030 hc        1 MOL      0.072976
     36 H17        -3.8500    2.3340   -5.1930 hc        1 MOL      0.072976
     37 H18        -2.1310    2.7970   -5.0640 hc        1 MOL      0.072976
     38 N3         -5.9130    2.1090   -0.7890 n         1 MOL     -0.019421
     39 C13        -6.4920    3.1230   -0.0050 c3        1 MOL     -0.280631
     40 C14        -5.6290    4.4350    0.0750 c         1 MOL      0.663191
     41 O6         -6.1580    5.5890    0.1260 o         1 MOL     -0.608756
     42 C15        -6.9470    2.5320    1.3430 c3        1 MOL     -0.032120
     43 C16        -7.8680    1.3820    1.1250 c         1 MOL      0.766467
     44 O7         -8.8480    1.5840    0.3880 o         1 MOL     -0.712816
     45 O8         -7.8310    0.4410    1.9560 o         1 MOL     -0.712816
     46 H19        -5.5010    1.3530   -0.2500 hn        1 MOL      0.072348
     47 H20        -7.3420    3.4350   -0.6070 h1        1 MOL      0.105796
     48 H21        -7.4360    3.3320    1.9110 hc        1 MOL      0.024711
     49 H22        -6.0940    2.2510    1.9510 hc        1 MOL      0.024711
     50 N4         -4.3130    4.4980   -0.0240 n         1 MOL     -0.599313
     51 C17        -3.4020    3.5010    0.6790 c3        1 MOL      0.253590
     52 C18        -2.2170    4.1080    1.4350 c         1 MOL      0.517865
     53 O9         -1.9530    5.2560    1.1940 o         1 MOL     -0.586295
     54 H23        -3.9500    5.4270   -0.1130 hn        1 MOL      0.316622
     55 H24        -2.9570    2.9250   -0.1390 h1        1 MOL      0.021368
     56 H25        -3.9360    2.7710    1.2930 h1        1 MOL      0.021368
     57 N5         -1.4820    3.4310    2.2840 n         1 MOL     -0.437878
     58 C19        -1.7170    2.0040    2.7430 c3        1 MOL      0.093614
     59 C20        -2.0220    0.9570    1.6610 c         1 MOL     -0.034770
     60 O10        -3.1500    0.4960    1.5180 o         1 MOL     -0.262855
     61 C21        -2.7420    2.1200    3.8980 c3        1 MOL     -0.415287
     62 C22        -3.1390    0.7620    4.5550 c         1 MOL      0.814555
     63 O11        -2.2230   -0.0940    4.6870 o         1 MOL     -0.680943
     64 O12        -4.2510    0.6050    5.1020 o         1 MOL     -0.680943
     65 H26        -0.7220    3.9010    2.7570 hn        1 MOL      0.295398
     66 H27        -0.7750    1.7030    3.1960 h1        1 MOL      0.112600
     67 H28        -3.5830    2.7450    3.5880 hc        1 MOL      0.089004
     68 H29        -2.1350    2.7050    4.5890 hc        1 MOL      0.089004
     69 N6         -0.9890    0.4930    0.9550 n         1 MOL     -0.136828
     70 C23         0.2950    1.1590    0.7730 c3        1 MOL      0.012829
     71 C24         0.2560    2.4910    0.0520 c         1 MOL      0.578633
     72 O13        -0.7230    2.8350   -0.5840 o         1 MOL     -0.498866
     73 H30        -1.2560   -0.2460    0.3090 hn        1 MOL      0.161546
     74 H31         0.9870    0.5130    0.2360 h1        1 MOL      0.037862
     75 H32         0.7690    1.2620    1.7520 h1        1 MOL      0.037862
     76 N7          1.3290    3.2430    0.1670 n         1 MOL     -0.644135
     77 C25         1.5480    4.4960   -0.5770 c3        1 MOL     -0.007019
     78 C26         2.3640    4.3590   -1.8920 c         1 MOL      0.348472
     79 O14         2.8310    5.3750   -2.4500 o         1 MOL     -0.497978
     80 C27         2.1670    5.4610    0.3810 c3        1 MOL      0.016801
     81 C28         1.2220    5.9600    1.4590 c3        1 MOL     -0.243218
     82 C29         2.0290    6.5410    2.6450 c         1 MOL      0.557244
     83 N8          1.3840    6.9740    3.7060 n         1 MOL     -0.731903
     84 O15         3.2970    6.7440    2.6380 o         1 MOL     -0.562854
     85 H33         2.0920    3.0050    0.7760 hn        1 MOL      0.327825
     86 H34         0.5670    4.8750   -0.8660 h1        1 MOL      0.148545
     87 H35         2.3790    6.3770   -0.1710 hc        1 MOL      0.051188
     88 H36         3.1190    5.0620    0.7070 hc        1 MOL      0.051188
     89 H37         0.5060    5.2520    1.8710 hc        1 MOL      0.113724
     90 H38         0.5670    6.7540    1.1180 hc        1 MOL      0.113724
     91 H39         0.3780    6.8970    3.7500 hn        1 MOL      0.352830
     92 H40         1.8750    7.3700    4.4980 hn        1 MOL      0.352830
     93 N9          2.6260    3.0960   -2.3190 n         1 MOL     -0.070742
     94 C30         3.2430    2.7310   -3.6210 c3        1 MOL     -0.373838
     95 C31         4.5960    1.9830   -3.5890 c         1 MOL      0.561467
     96 O16         5.2510    1.9360   -4.6270 o         1 MOL     -0.528836
     97 C32         2.2370    2.0380   -4.4810 c3        1 MOL      0.461081
     98 C33         0.9450    2.8260   -4.7650 c3        1 MOL     -0.287322
     99 C34         1.7910    0.7100   -3.8820 c3        1 MOL     -0.287322
    100 H41         2.3540    2.3740   -1.6750 hn        1 MOL      0.168586
    101 H42         3.3260    3.6670   -4.1820 h1        1 MOL      0.173359
    102 H43         2.6220    1.8180   -5.4760 hc        1 MOL     -0.053327
    103 H44         0.4380    3.1690   -3.8570 hc        1 MOL      0.056684
    104 H45         1.2150    3.6510   -5.4180 hc        1 MOL      0.056684
    105 H46         0.2810    2.0510   -5.1380 hc        1 MOL      0.056684
    106 H47         1.2190    0.9250   -2.9770 hc        1 MOL      0.056684
    107 H48         1.1920    0.1140   -4.5700 hc        1 MOL      0.056684
    108 H49         2.6320    0.0820   -3.5890 hc        1 MOL      0.056684
    109 N10         5.1060    1.5540   -2.4650 n         1 MOL     -0.481912
    110 C35         6.5200    1.6000   -2.1450 c3        1 MOL      0.277424
    111 C36         7.0190    0.1230   -1.7430 c         1 MOL      0.421774
    112 O17         8.1060   -0.3050   -2.2160 o         1 MOL     -0.546479
    113 C37         6.7610    2.5360   -1.0040 c3        1 MOL     -0.241975
    114 C38         6.2050    3.8940   -1.3270 c         1 MOL      0.619069
    115 N11         5.8480    4.6380   -0.3420 n         1 MOL     -0.666080
    116 O18         6.0650    4.2230   -2.5210 o         1 MOL     -0.508458
    117 H50         4.4900    1.4800   -1.6650 hn        1 MOL      0.265207
    118 H51         7.1220    2.0360   -2.9480 h1        1 MOL      0.062586
    119 H52         7.8150    2.6000   -0.7520 hc        1 MOL      0.039023
    120 H53         6.2420    2.1000   -0.1530 hc        1 MOL      0.039023
    121 H54         5.9290    4.3300    0.6130 hn        1 MOL      0.316029
    122 H55         5.2720    5.4540   -0.5100 hn        1 MOL      0.316029
    123 N12         6.2960   -0.5630   -0.8810 n         1 MOL     -0.636622
    124 C39         6.5380   -1.9200   -0.4470 c3        1 MOL      0.712330
    125 C40         5.2160   -2.6140   -0.1610 c         1 MOL      0.149869
    126 O19         4.2210   -1.9980    0.1330 o         1 MOL     -0.357855
    127 C41         7.5750   -1.9270    0.7170 c3        1 MOL     -0.147364
    128 C42         7.3230   -0.9720    1.8510 ca        1 MOL      0.292158
    129 C43         6.2680   -1.2000    2.7540 ca        1 MOL     -0.326397
    130 C44         8.1490    0.1490    1.9080 ca        1 MOL     -0.326397
    131 C45         6.1000   -0.3620    3.8540 ca        1 MOL     -0.231808
    132 C46         7.9520    1.0140    2.9880 ca        1 MOL     -0.231808
    133 C47         6.9100    0.7700    3.9300 ca        1 MOL      0.391816
    134 O20         6.8350    1.6980    4.8770 oh        1 MOL     -0.472450
    135 H56         5.4260   -0.1720   -0.5380 hn        1 MOL      0.273419
    136 H57         7.0400   -2.5070   -1.2220 h1        1 MOL     -0.068554
    137 H58         8.5670   -1.8450    0.2810 hc        1 MOL      0.011313
    138 H59         7.5570   -2.9350    1.1310 hc        1 MOL      0.011313
    139 H60         5.6020   -2.0490    2.6490 ha        1 MOL      0.158019
    140 H61         8.9070    0.2650    1.1520 ha        1 MOL      0.158019
    141 H62         5.2560   -0.5510    4.4990 ha        1 MOL      0.149017
    142 H63         8.4550    1.9680    2.8810 ha        1 MOL      0.149017
    143 H64         7.6120    2.2290    5.0610 ho        1 MOL      0.303236
    144 N13         5.2980   -3.9450    0.0660 n         1 MOL     -0.500244
    145 C48         4.2470   -4.8840    0.5110 c3        1 MOL      0.394057
    146 C49         2.9320   -4.8800   -0.2720 c         1 MOL      0.320461
    147 O21         2.2940   -5.9290   -0.2630 o         1 MOL     -0.518911
    148 C50         4.0450   -4.6610    2.0040 c3        1 MOL     -0.323041
    149 C51         5.2550   -5.0830    2.8330 c3        1 MOL     -0.174149
    150 C52         4.9580   -4.6180    4.2220 c         1 MOL      0.608793
    151 O22         5.5970   -3.6220    4.6620 o         1 MOL     -0.662075
    152 O23         4.1740   -5.2620    4.9700 o         1 MOL     -0.662075
    153 H65         6.1440   -4.3750   -0.2950 hn        1 MOL      0.247134
    154 H66         4.5930   -5.9050    0.3070 h1        1 MOL      0.008204
    155 H67         3.2780   -5.3680    2.3230 hc        1 MOL      0.146548
    156 H68         3.7090   -3.6710    2.3330 hc        1 MOL      0.146548
    157 H69         6.0740   -4.4100    2.5540 hc        1 MOL      0.033074
    158 H70         5.5730   -6.1040    2.6440 hc        1 MOL      0.033074
    159 N14         2.5620   -3.8530   -1.0160 n         1 MOL     -0.411115
    160 C53         1.4870   -3.9050   -2.0290 c3        1 MOL      0.017776
    161 C54         1.9430   -4.6730   -3.3090 c         1 MOL      0.436009
    162 O24         1.2930   -4.6210   -4.3390 o         1 MOL     -0.545588
    163 C55         0.8870   -2.5030   -2.2640 c3        1 MOL     -0.107499
    164 C56         0.4830   -1.6820   -0.9900 c3        1 MOL      0.437759
    165 C57        -0.6790   -2.3460   -0.2020 c         1 MOL      0.432425
    166 O25        -1.8040   -1.8380   -0.0740 o         1 MOL     -0.573513
    167 O26        -0.4850   -3.4750    0.3240 o         1 MOL     -0.573513
    168 H71         3.1510   -3.0330   -1.0180 hn        1 MOL      0.233778
    169 H72         0.6250   -4.4390   -1.6040 h1        1 MOL      0.137576
    170 H73         0.0580   -2.5590   -2.9730 hc        1 MOL      0.024737
    171 H74         1.6930   -1.9520   -2.7430 hc        1 MOL      0.024737
    172 H75         0.2800   -0.6630   -1.2950 hc        1 MOL     -0.123353
    173 H76         1.3520   -1.5670   -0.3310 hc        1 MOL     -0.123353
    174 N15         3.0630   -5.3190   -3.3750 n         1 MOL     -0.183878
    175 C58         3.5030   -6.1880   -4.4530 c3        1 MOL     -0.088281
    176 H77         4.5400   -5.9630   -4.7000 h1        1 MOL      0.058938
    177 H78         3.4220   -7.2280   -4.1380 h1        1 MOL      0.058938
    178 H79         2.8770   -6.0240   -5.3310 h1        1 MOL      0.058938
    179 H80         3.7720   -5.2050   -2.6570 hn        1 MOL      0.182843
    180 Ca1        -3.8770   -2.3700    1.2870 Ca        1 MOL      1.709438
    181 O27        -4.2990   -3.7220    3.7300 oh        1 MOL     -0.810642
    182 H81        -3.5980   -4.3560    3.8720 ho        1 MOL      0.379665
    183 H82        -5.0650   -4.2600    3.4900 ho        1 MOL      0.379665
    184 O28        -2.0200   -2.1390    3.2400 oh        1 MOL     -0.810642
    185 H83        -1.3200   -2.7190    3.5590 ho        1 MOL      0.379665
    186 H84        -1.9720   -1.3710    3.8090 ho        1 MOL      0.379665
    187 O29        -5.5650   -0.8440    2.8470 oh        1 MOL     -0.810642
    188 H85        -5.2320   -0.4270    3.6450 ho        1 MOL      0.379665
    189 H86        -6.4020   -0.4120    2.6770 ho        1 MOL      0.379665
    190 O30        -2.7200   -4.8160    1.3040 oh        1 MOL     -0.810642
    191 H87        -2.5320   -5.7210    1.5430 ho        1 MOL      0.379665
    192 H88        -1.9570   -4.5340    0.7980 ho        1 MOL      0.379665
@<TRIPOS>BOND
     1    1    2 1   
     2    1    4 1   
     3    1    5 1   
     4    1    6 1   
     5    2    3 2   
     6    2    7 1   
     7    7    8 1   
     8    7   15 1   
     9    8    9 1   
    10    8   11 1   
    11    8   16 1   
    12    9   10 2   
    13    9   19 1   
    14   11   12 1   
    15   11   17 1   
    16   11   18 1   
    17   12   13 1   
    18   12   14 1   
    19   19   20 1   
    20   19   27 1   
    21   20   21 1   
    22   20   23 1   
    23   20   28 1   
    24   21   22 2   
    25   21   38 1   
    26   23   24 1   
    27   23   25 1   
    28   23   29 1   
    29   24   26 1   
    30   24   30 1   
    31   24   31 1   
    32   25   32 1   
    33   25   33 1   
    34   25   34 1   
    35   26   35 1   
    36   26   36 1   
    37   26   37 1   
    38   38   39 1   
    39   38   46 1   
    40   39   40 1   
    41   39   42 1   
    42   39   47 1   
    43   40   41 2   
    44   40   50 1   
    45   42   43 1   
    46   42   48 1   
    47   42   49 1   
    48   43   44 1   
    49   43   45 1   
    50   50   51 1   
    51   50   54 1   
    52   51   52 1   
    53   51   55 1   
    54   51   56 1   
    55   52   53 2   
    56   52   57 1   
    57   57   58 1   
    58   57   65 1   
    59   58   59 1   
    60   58   61 1   
    61   58   66 1   
    62   59   60 2   
    63   59   69 1   
    64   61   62 1   
    65   61   67 1   
    66   61   68 1   
    67   62   63 1   
    68   62   64 1   
    69   69   70 1   
    70   69   73 1   
    71   70   71 1   
    72   70   74 1   
    73   70   75 1   
    74   71   72 2   
    75   71   76 1   
    76   76   77 1   
    77   76   85 1   
    78   77   78 1   
    79   77   80 1   
    80   77   86 1   
    81   78   79 2   
    82   78   93 1   
    83   80   81 1   
    84   80   87 1   
    85   80   88 1   
    86   81   82 1   
    87   81   89 1   
    88   81   90 1   
    89   82   83 1   
    90   82   84 2   
    91   83   91 1   
    92   83   92 1   
    93   93   94 1   
    94   93  100 1   
    95   94   95 1   
    96   94   97 1   
    97   94  101 1   
    98   95   96 2   
    99   95  109 1   
   100   97   98 1   
   101   97   99 1   
   102   97  102 1   
   103   98  103 1   
   104   98  104 1   
   105   98  105 1   
   106   99  106 1   
   107   99  107 1   
   108   99  108 1   
   109  109  110 1   
   110  109  117 1   
   111  110  111 1   
   112  110  113 1   
   113  110  118 1   
   114  111  112 2   
   115  111  123 1   
   116  113  114 1   
   117  113  119 1   
   118  113  120 1   
   119  114  115 1   
   120  114  116 2   
   121  115  121 1   
   122  115  122 1   
   123  123  124 1   
   124  123  135 1   
   125  124  125 1   
   126  124  127 1   
   127  124  136 1   
   128  125  126 2   
   129  125  144 1   
   130  127  128 1   
   131  127  137 1   
   132  127  138 1   
   133  128  129 ar  
   134  128  130 ar  
   135  129  131 ar  
   136  129  139 1   
   137  130  132 ar  
   138  130  140 1   
   139  131  133 ar  
   140  131  141 1   
   141  132  133 ar  
   142  132  142 1   
   143  133  134 1   
   144  134  143 1   
   145  144  145 1   
   146  144  153 1   
   147  145  146 1   
   148  145  148 1   
   149  145  154 1   
   150  146  147 2   
   151  146  159 1   
   152  148  149 1   
   153  148  155 1   
   154  148  156 1   
   155  149  150 1   
   156  149  157 1   
   157  149  158 1   
   158  150  151 1   
   159  150  152 1   
   160  159  160 1   
   161  159  168 1   
   162  160  161 1   
   163  160  163 1   
   164  160  169 1   
   165  161  162 2   
   166  161  174 1   
   167  163  164 1   
   168  163  170 1   
   169  163  171 1   
   170  164  165 1   
   171  164  172 1   
   172  164  173 1   
   173  165  166 1   
   174  165  167 1   
   175  174  175 1   
   176  174  179 1   
   177  175  176 1   
   178  175  177 1   
   179  175  178 1   
   180  181  182 1   
   181  181  183 1   
   182  184  185 1   
   183  184  186 1   
   184  187  188 1   
   185  187  189 1   
   186  190  191 1   
   187  190  192 1   
@<TRIPOS>SUBSTRUCTURE
     1 MOL         1 TEMP              0 ****  ****    0 ROOT
