@<TRIPOS>MOLECULE
MOL
  192   187     1     0     0
SMALL
resp


@<TRIPOS>ATOM
      1 C1          9.2660    1.0580    2.0170 c3        1 MOL     -0.455948
      2 C2          8.2210    0.4640    1.0750 c         1 MOL      0.751254
      3 O1          7.1130    0.2020    1.5460 o         1 MOL     -0.653912
      4 H1         10.2100    0.5280    1.8920 hc        1 MOL      0.117797
      5 H2          9.4080    2.1130    1.7840 hc        1 MOL      0.117797
      6 H3          8.9270    0.9560    3.0480 hc        1 MOL      0.117797
      7 N1          8.4090    0.4400   -0.2090 n         1 MOL     -0.661726
      8 C3          7.4070    0.2990   -1.2970 c3        1 MOL      0.204890
      9 C4          6.9870   -1.1640   -1.4980 c         1 MOL      0.383344
     10 O2          6.8650   -1.5820   -2.6270 o         1 MOL     -0.452827
     11 C5          7.7990    1.0920   -2.5260 c3        1 MOL     -0.257435
     12 C6          9.2740    1.0420   -2.9280 c         1 MOL      0.723922
     13 O3          9.9550   -0.0210   -2.7760 o         1 MOL     -0.652288
     14 O4          9.8490    2.0870   -3.4010 o         1 MOL     -0.652288
     15 H4          9.3140    0.8250   -0.4370 hn        1 MOL      0.324391
     16 H5          6.5580    0.8260   -0.8740 h1        1 MOL      0.137865
     17 H6          7.6650    2.1510   -2.2890 hc        1 MOL      0.069558
     18 H7          7.1440    0.8680   -3.3610 hc        1 MOL      0.069558
     19 N2          6.6420   -1.8600   -0.4140 n         1 MOL     -0.240661
     20 C7          6.2900   -3.2800   -0.3140 c3        1 MOL      0.156341
     21 C8          4.7780   -3.5950   -0.5630 c         1 MOL      0.288627
     22 O5          4.4640   -4.6220   -1.2280 o         1 MOL     -0.515510
     23 C9          6.8070   -3.9140    0.9860 c3        1 MOL      0.124699
     24 C10         8.2290   -3.6400    1.2450 c3        1 MOL     -0.006148
     25 C11         8.9570   -4.7060    2.1160 c3        1 MOL     -0.070004
     26 C12        10.3630   -4.3320    2.5860 c3        1 MOL      0.017934
     27 N3         10.9670   -5.4990    3.2030 n4        1 MOL     -0.141745
     28 H8          6.6930   -1.3840    0.4780 hn        1 MOL      0.142003
     29 H9          6.7820   -3.7450   -1.1600 h1        1 MOL      0.054948
     30 H10         6.7120   -4.9920    0.8830 hc        1 MOL     -0.035606
     31 H11         6.1780   -3.5990    1.8210 hc        1 MOL     -0.035606
     32 H12         8.2750   -2.6920    1.7890 hc        1 MOL      0.005252
     33 H13         8.8570   -3.5140    0.3710 hc        1 MOL      0.005252
     34 H14         8.9080   -5.5930    1.4860 hc        1 MOL      0.040460
     35 H15         8.3260   -4.9780    2.9550 hc        1 MOL      0.040460
     36 H16        10.4900   -3.4760    3.2600 hx        1 MOL      0.083034
     37 H17        10.9270   -4.0910    1.6840 hx        1 MOL      0.083034
     38 H18        11.9620   -5.3530    3.3090 hn        1 MOL      0.224553
     39 H19        10.4750   -5.9590    3.9520 hn        1 MOL      0.224553
     40 H20        10.8930   -6.1940    2.4720 hn        1 MOL      0.224553
     41 N4          3.8130   -2.7300   -0.2090 n         1 MOL     -0.146145
     42 C13         3.8580   -1.6740    0.8550 c3        1 MOL      0.011265
     43 C14         3.9450   -0.2140    0.2270 c         1 MOL      0.045219
     44 O6          4.1910    0.0430   -0.9550 o         1 MOL     -0.410552
     45 C15         2.6240   -1.9550    1.7790 c3        1 MOL     -0.566618
     46 C16         1.4130   -2.0650    0.9240 c         1 MOL      0.914886
     47 O7          0.9290   -1.1290    0.2600 o         1 MOL     -0.743901
     48 O8          0.9920   -3.2360    0.7860 o         1 MOL     -0.743901
     49 H21         2.9130   -3.0540   -0.5200 hn        1 MOL      0.291169
     50 H22         4.7900   -1.7460    1.4200 h1        1 MOL      0.179114
     51 H23         2.4750   -1.1300    2.4730 hc        1 MOL      0.129935
     52 H24         2.9130   -2.8700    2.3010 hc        1 MOL      0.129935
     53 N5          3.8890    0.8170    1.1700 n         1 MOL     -0.163165
     54 C17         3.9940    2.2230    0.7700 c3        1 MOL     -0.070868
     55 C18         2.7800    2.7350   -0.0640 c         1 MOL      0.386088
     56 O9          1.6480    2.1980   -0.0970 o         1 MOL     -0.409111
     57 H25         3.8350    0.5640    2.1490 hn        1 MOL      0.241625
     58 H26         4.9290    2.1970    0.2080 h1        1 MOL      0.096622
     59 H27         4.2050    2.8700    1.6220 h1        1 MOL      0.096622
     60 N6          2.9090    3.9310   -0.7450 n         1 MOL     -0.356229
     61 C19         1.8800    4.6680   -1.4920 c3        1 MOL      0.142649
     62 C20         2.2890    6.1510   -1.4580 c         1 MOL      0.419838
     63 O10         3.4860    6.5110   -1.4940 o         1 MOL     -0.514148
     64 C21         1.8410    4.1930   -2.9910 c3        1 MOL     -0.155015
     65 C22         1.1840    2.8430   -3.2100 c         1 MOL      0.679829
     66 O11         0.0740    2.6300   -2.6780 o         1 MOL     -0.695102
     67 O12         1.7810    2.0020   -3.9140 o         1 MOL     -0.695102
     68 H28         3.8330    4.3170   -0.6360 hn        1 MOL      0.243052
     69 H29         0.8730    4.5740   -1.0610 h1        1 MOL      0.057980
     70 H30         2.8620    4.2250   -3.3520 hc        1 MOL      0.060139
     71 H31         1.2550    4.8590   -3.6310 hc        1 MOL      0.060139
     72 N7          1.3780    7.1230   -1.4040 n         1 MOL     -0.427784
     73 C23        -0.0800    6.9210   -1.5310 c3        1 MOL     -0.042151
     74 C24        -0.8240    6.2840   -0.3070 c         1 MOL      0.584302
     75 O13        -0.3690    6.3300    0.8690 o         1 MOL     -0.525124
     76 H32         1.7520    8.0300   -1.1480 hn        1 MOL      0.321579
     77 H33        -0.3140    6.3500   -2.4380 h1        1 MOL      0.077443
     78 H34        -0.5160    7.9040   -1.7150 h1        1 MOL      0.077443
     79 N8         -1.9220    5.5590   -0.5820 n         1 MOL     -0.621387
     80 C25        -2.7070    4.8160    0.4080 c3        1 MOL      0.116848
     81 C26        -1.8730    3.6580    0.9660 c         1 MOL      0.833590
     82 O14        -1.1900    2.9620    0.2040 o         1 MOL     -0.822302
     83 C27        -3.9830    4.1930   -0.2320 c3        1 MOL      0.551593
     84 C28        -4.9440    5.3160   -0.6120 c3        1 MOL     -0.368538
     85 O15        -4.6130    3.3170    0.6430 oh        1 MOL     -0.720845
     86 H35        -2.2290    5.4650   -1.5450 hn        1 MOL      0.279594
     87 H36        -2.9640    5.4120    1.2820 h1        1 MOL      0.022674
     88 H37        -3.7020    3.5870   -1.0890 h1        1 MOL     -0.074944
     89 H38        -5.1210    2.7650    0.0510 ho        1 MOL      0.429149
     90 H39        -5.7630    4.7980   -1.1100 hc        1 MOL      0.083818
     91 H40        -5.3050    6.0020    0.1660 hc        1 MOL      0.083818
     92 H41        -4.4720    5.9280   -1.3800 hc        1 MOL      0.083818
     93 N9         -2.0540    3.2910    2.2110 n         1 MOL     -0.591378
     94 C29        -1.4020    2.1990    2.9780 c3        1 MOL      0.300968
     95 C30        -1.7230    0.7990    2.4780 c         1 MOL      0.358310
     96 O16        -1.7260    0.5440    1.2970 o         1 MOL     -0.528456
     97 C31         0.1340    2.5870    3.1910 c3        1 MOL      0.025114
     98 C32         0.4560    3.8350    3.9980 c3        1 MOL      0.046969
     99 C33         0.9160    1.4100    3.7920 c3        1 MOL     -0.738379
    100 C34        -0.1400    3.9190    5.4180 c3        1 MOL     -0.158299
    101 H42        -2.7750    3.8130    2.6940 hn        1 MOL      0.288007
    102 H43        -1.8530    2.1820    3.9680 h1        1 MOL     -0.012757
    103 H44         0.5530    2.8340    2.2200 hc        1 MOL      0.084444
    104 H45         0.0790    4.6840    3.4450 hc        1 MOL      0.018311
    105 H46         1.5430    3.8830    4.0500 hc        1 MOL      0.018311
    106 H47         0.5670    1.1190    4.7830 hc        1 MOL      0.194096
    107 H48         0.8880    0.6340    3.0230 hc        1 MOL      0.194096
    108 H49         1.9510    1.6740    3.9850 hc        1 MOL      0.194096
    109 H50         0.1270    3.0240    5.9940 hc        1 MOL      0.037008
    110 H51         0.1990    4.7790    5.9860 hc        1 MOL      0.037008
    111 H52        -1.2290    3.9070    5.3340 hc        1 MOL      0.037008
    112 N10        -1.8980   -0.2060    3.3460 n         1 MOL     -0.043149
    113 C35        -2.2680   -1.6180    3.1070 c3        1 MOL     -0.124869
    114 C36        -3.7410   -1.8620    2.7250 c         1 MOL      0.613194
    115 O17        -4.1250   -2.9310    2.3130 o         1 MOL     -0.537342
    116 C37        -1.6280   -2.4520    4.2120 c3        1 MOL      0.232618
    117 C38        -2.1450   -3.8680    4.5310 c3        1 MOL     -0.366664
    118 O18        -1.7030   -1.7280    5.4330 oh        1 MOL     -0.584736
    119 H53        -1.7990   -0.1150    4.3560 hn        1 MOL      0.104137
    120 H54        -1.7250   -1.9610    2.2220 h1        1 MOL      0.094918
    121 H55        -0.5920   -2.5150    3.9160 h1        1 MOL      0.099958
    122 H56        -2.4990   -2.0700    5.8430 ho        1 MOL      0.380988
    123 H57        -1.8930   -4.2090    5.5310 hc        1 MOL      0.105214
    124 H58        -3.2190   -3.7770    4.3880 hc        1 MOL      0.105214
    125 H59        -1.8160   -4.5330    3.7280 hc        1 MOL      0.105214
    126 N11        -4.6060   -0.8810    2.8920 n         1 MOL     -0.387198
    127 C39        -6.0460   -0.9780    2.5740 c3        1 MOL     -0.034327
    128 C40        -6.1530   -1.0810    1.0800 c         1 MOL      0.391524
    129 O19        -5.5480   -0.2490    0.3900 o         1 MOL     -0.450590
    130 C41        -6.9430    0.1810    3.1440 c3        1 MOL      0.326852
    131 C42        -8.4130    0.0680    2.7620 c3        1 MOL     -0.307802
    132 O20        -6.9800    0.1920    4.5280 oh        1 MOL     -0.572823
    133 H60        -4.2080   -0.0890    3.3670 hn        1 MOL      0.170737
    134 H61        -6.4440   -1.8530    3.0920 h1        1 MOL      0.066901
    135 H62        -6.5980    1.1510    2.7670 h1        1 MOL      0.030822
    136 H63        -6.0830    0.3750    4.8410 ho        1 MOL      0.373547
    137 H64        -8.6030    0.2020    1.6980 hc        1 MOL      0.088392
    138 H65        -8.8180   -0.9100    3.0300 hc        1 MOL      0.088392
    139 H66        -9.0530    0.7620    3.3110 hc        1 MOL      0.088392
    140 N12        -6.8870   -2.0500    0.5310 n         1 MOL     -0.345050
    141 C43        -7.0580   -2.3010   -0.9040 c3        1 MOL      0.096949
    142 C44        -5.7630   -2.0580   -1.6840 c         1 MOL      0.402331
    143 O21        -5.7590   -1.2210   -2.5690 o         1 MOL     -0.484240
    144 C45        -8.2930   -1.5530   -1.4240 c3        1 MOL     -0.163837
    145 C46        -9.6180   -1.9860   -0.8060 c3        1 MOL      0.189226
    146 C47       -10.7350   -1.2640   -1.5820 c3        1 MOL     -0.021143
    147 C48       -12.0860   -1.4050   -0.9170 c3        1 MOL      0.035951
    148 N13       -13.1970   -0.8470   -1.7060 n4        1 MOL     -0.034239
    149 H67        -7.3370   -2.6580    1.1920 hn        1 MOL      0.239481
    150 H68        -7.2610   -3.3680   -1.0060 h1        1 MOL      0.045861
    151 H69        -8.4190   -1.6300   -2.5020 hc        1 MOL      0.056645
    152 H70        -8.1320   -0.4860   -1.2750 hc        1 MOL      0.056645
    153 H71        -9.6840   -1.5940    0.2080 hc        1 MOL     -0.041701
    154 H72        -9.6230   -3.0690   -0.7170 hc        1 MOL     -0.041701
    155 H73       -10.7530   -1.5990   -2.6120 hc        1 MOL      0.028355
    156 H74       -10.4540   -0.2080   -1.5830 hc        1 MOL      0.028355
    157 H75       -12.1860   -0.9150    0.0430 hx        1 MOL      0.042595
    158 H76       -12.3410   -2.4620   -0.8260 hx        1 MOL      0.042595
    159 H77       -13.0740    0.1310   -1.9620 hn        1 MOL      0.153464
    160 H78       -13.4100   -1.3330   -2.5670 hn        1 MOL      0.153464
    161 H79       -14.0870   -0.7760   -1.2310 hn        1 MOL      0.153464
    162 N14        -4.6980   -2.7940   -1.2880 n         1 MOL     -0.334100
    163 C49        -3.3090   -2.7120   -1.9050 c3        1 MOL      0.161151
    164 C50        -2.1680   -2.7870   -0.8900 c         1 MOL      0.395754
    165 O22        -1.6630   -1.7590   -0.5380 o         1 MOL     -0.556978
    166 C51        -3.0660   -3.7640   -3.0250 c3        1 MOL     -0.081489
    167 C52        -3.4240   -3.1780   -4.4070 c3        1 MOL     -0.176526
    168 C53        -3.4770   -4.2790   -5.5150 c         1 MOL      0.691785
    169 O23        -2.7120   -4.2720   -6.4950 o         1 MOL     -0.630050
    170 O24        -4.3190   -5.1830   -5.3260 o         1 MOL     -0.630050
    171 H80        -4.8870   -3.4700   -0.5550 hn        1 MOL      0.246836
    172 H81        -3.2620   -1.7360   -2.3910 h1        1 MOL      0.121626
    173 H82        -3.7200   -4.6070   -2.7750 hc        1 MOL      0.049096
    174 H83        -2.0400   -4.1340   -3.0390 hc        1 MOL      0.049096
    175 H84        -2.7460   -2.3850   -4.7160 hc        1 MOL      0.022012
    176 H85        -4.3830   -2.6700   -4.2920 hc        1 MOL      0.022012
    177 N15        -1.6780   -3.9230   -0.3530 n         1 MOL     -0.324422
    178 C54        -2.0680   -5.3200   -0.4140 c3        1 MOL     -0.006175
    179 H86        -2.7800   -5.4630   -1.2270 h1        1 MOL      0.030356
    180 H87        -1.1860   -5.9360   -0.5930 h1        1 MOL      0.030356
    181 H88        -2.5300   -5.6100    0.5280 h1        1 MOL      0.030356
    182 H89        -0.8200   -3.7600    0.1680 hn        1 MOL      0.352528
    183 Ca1        -0.3860    0.6090   -1.0110 Ca        1 MOL      1.759561
    184 O25         2.0260   -0.0430   -2.4160 oh        1 MOL     -0.860960
    185 H90         2.9160   -0.1110   -2.0830 ho        1 MOL      0.423945
    186 H91         2.0680    0.6350   -3.0880 ho        1 MOL      0.423945
    187 O26        -0.6630   -0.4020   -3.4620 oh        1 MOL     -0.860960
    188 H92        -0.8750    0.3000   -4.0730 ho        1 MOL      0.423945
    189 H93        -0.0740   -0.9810   -3.9460 ho        1 MOL      0.423945
    190 O27        -2.5460    1.4640   -2.1230 oh        1 MOL     -0.860960
    191 H94        -3.3460    1.4260   -2.6540 ho        1 MOL      0.423945
    192 H95        -2.3060    2.3860   -2.1000 ho        1 MOL      0.423945
@<TRIPOS>BOND
     1    1    2 1   
     2    1    4 1   
     3    1    5 1   
     4    1    6 1   
     5    2    3 2   
     6    2    7 1   
     7    7    8 1   
     8    7   15 1   
     9    8    9 1   
    10    8   11 1   
    11    8   16 1   
    12    9   10 2   
    13    9   19 1   
    14   11   12 1   
    15   11   17 1   
    16   11   18 1   
    17   12   13 1   
    18   12   14 1   
    19   19   20 1   
    20   19   28 1   
    21   20   21 1   
    22   20   23 1   
    23   20   29 1   
    24   21   22 2   
    25   21   41 1   
    26   23   24 1   
    27   23   30 1   
    28   23   31 1   
    29   24   25 1   
    30   24   32 1   
    31   24   33 1   
    32   25   26 1   
    33   25   34 1   
    34   25   35 1   
    35   26   27 1   
    36   26   36 1   
    37   26   37 1   
    38   27   38 1   
    39   27   39 1   
    40   27   40 1   
    41   41   42 1   
    42   41   49 1   
    43   42   43 1   
    44   42   45 1   
    45   42   50 1   
    46   43   44 2   
    47   43   53 1   
    48   45   46 1   
    49   45   51 1   
    50   45   52 1   
    51   46   47 1   
    52   46   48 1   
    53   53   54 1   
    54   53   57 1   
    55   54   55 1   
    56   54   58 1   
    57   54   59 1   
    58   55   56 2   
    59   55   60 1   
    60   60   61 1   
    61   60   68 1   
    62   61   62 1   
    63   61   64 1   
    64   61   69 1   
    65   62   63 2   
    66   62   72 1   
    67   64   65 1   
    68   64   70 1   
    69   64   71 1   
    70   65   66 1   
    71   65   67 1   
    72   72   73 1   
    73   72   76 1   
    74   73   74 1   
    75   73   77 1   
    76   73   78 1   
    77   74   75 2   
    78   74   79 1   
    79   79   80 1   
    80   79   86 1   
    81   80   81 1   
    82   80   83 1   
    83   80   87 1   
    84   81   82 2   
    85   81   93 1   
    86   83   84 1   
    87   83   85 1   
    88   83   88 1   
    89   84   90 1   
    90   84   91 1   
    91   84   92 1   
    92   85   89 1   
    93   93   94 1   
    94   93  101 1   
    95   94   95 1   
    96   94   97 1   
    97   94  102 1   
    98   95   96 2   
    99   95  112 1   
   100   97   98 1   
   101   97   99 1   
   102   97  103 1   
   103   98  100 1   
   104   98  104 1   
   105   98  105 1   
   106   99  106 1   
   107   99  107 1   
   108   99  108 1   
   109  100  109 1   
   110  100  110 1   
   111  100  111 1   
   112  112  113 1   
   113  112  119 1   
   114  113  114 1   
   115  113  116 1   
   116  113  120 1   
   117  114  115 2   
   118  114  126 1   
   119  116  117 1   
   120  116  118 1   
   121  116  121 1   
   122  117  123 1   
   123  117  124 1   
   124  117  125 1   
   125  118  122 1   
   126  126  127 1   
   127  126  133 1   
   128  127  128 1   
   129  127  130 1   
   130  127  134 1   
   131  128  129 2   
   132  128  140 1   
   133  130  131 1   
   134  130  132 1   
   135  130  135 1   
   136  131  137 1   
   137  131  138 1   
   138  131  139 1   
   139  132  136 1   
   140  140  141 1   
   141  140  149 1   
   142  141  142 1   
   143  141  144 1   
   144  141  150 1   
   145  142  143 2   
   146  142  162 1   
   147  144  145 1   
   148  144  151 1   
   149  144  152 1   
   150  145  146 1   
   151  145  153 1   
   152  145  154 1   
   153  146  147 1   
   154  146  155 1   
   155  146  156 1   
   156  147  148 1   
   157  147  157 1   
   158  147  158 1   
   159  148  159 1   
   160  148  160 1   
   161  148  161 1   
   162  162  163 1   
   163  162  171 1   
   164  163  164 1   
   165  163  166 1   
   166  163  172 1   
   167  164  165 2   
   168  164  177 1   
   169  166  167 1   
   170  166  173 1   
   171  166  174 1   
   172  167  168 1   
   173  167  175 1   
   174  167  176 1   
   175  168  169 1   
   176  168  170 1   
   177  177  178 1   
   178  177  182 1   
   179  178  179 1   
   180  178  180 1   
   181  178  181 1   
   182  184  185 1   
   183  184  186 1   
   184  187  188 1   
   185  187  189 1   
   186  190  191 1   
   187  190  192 1   
@<TRIPOS>SUBSTRUCTURE
     1 MOL         1 TEMP              0 ****  ****    0 ROOT
