@<TRIPOS>MOLECULE
MOL
  192   187     1     0     0
SMALL
resp


@<TRIPOS>ATOM
      1 C1         11.8900    6.0030   -2.1560 c3        1 MOL     -0.477130
      2 C2         11.8780    4.5340   -1.5710 c         1 MOL      0.564396
      3 O1         12.8900    3.7860   -1.5580 o         1 MOL     -0.566789
      4 H1         12.4770    6.6490   -1.5040 hc        1 MOL      0.133358
      5 H2         12.3330    5.9950   -3.1520 hc        1 MOL      0.133358
      6 H3         10.8680    6.3800   -2.2160 hc        1 MOL      0.133358
      7 N1         10.7930    4.1850   -0.9750 n         1 MOL     -0.162498
      8 C3         10.5900    2.9180   -0.3340 c3        1 MOL     -0.309249
      9 C4          9.3010    2.1580   -0.6570 c         1 MOL      0.703851
     10 O2          8.3010    2.8710   -0.8460 o         1 MOL     -0.681918
     11 C5         10.7820    3.1620    1.2310 c3        1 MOL      0.084962
     12 C6         10.0780    4.3420    1.8430 c         1 MOL      0.743569
     13 O3         10.3600    4.6630    3.0070 o         1 MOL     -0.719372
     14 O4          9.2200    4.8990    1.1610 o         1 MOL     -0.719372
     15 H4         10.0220    4.8340   -0.9250 hn        1 MOL      0.109423
     16 H5         11.3240    2.1480   -0.6040 h1        1 MOL      0.088682
     17 H6         11.8620    3.2700    1.3610 hc        1 MOL      0.023297
     18 H7         10.5440    2.2800    1.8150 hc        1 MOL      0.023297
     19 N2          9.2210    0.8450   -0.6510 n         1 MOL     -0.430333
     20 C7          8.1150   -0.0160   -0.9820 c3        1 MOL     -0.061783
     21 C8          7.3050   -0.1120    0.3530 c         1 MOL      0.628015
     22 O5          7.8720   -0.5420    1.3790 o         1 MOL     -0.531771
     23 C9          8.4800   -1.3050   -1.7080 c3        1 MOL     -0.016597
     24 C10         7.2040   -2.1240   -2.1640 c3        1 MOL      0.030417
     25 C11         7.6380   -3.3110   -2.9550 c3        1 MOL     -0.202045
     26 C12         6.6740   -4.4770   -3.0790 c3        1 MOL      0.148547
     27 N3          6.6870   -5.4730   -2.0510 n4        1 MOL     -0.388554
     28 H8         10.0780    0.3190   -0.5210 hn        1 MOL      0.291989
     29 H9          7.5050    0.5730   -1.6630 h1        1 MOL      0.085791
     30 H10         9.1470   -1.9610   -1.1560 hc        1 MOL      0.032175
     31 H11         8.9170   -1.0690   -2.6770 hc        1 MOL      0.032175
     32 H12         6.6070   -1.3630   -2.6740 hc        1 MOL      0.026870
     33 H13         6.7640   -2.5230   -1.2490 hc        1 MOL      0.026870
     34 H14         8.6160   -3.6700   -2.6540 hc        1 MOL      0.092550
     35 H15         7.7400   -2.9630   -3.9850 hc        1 MOL      0.092550
     36 H16         6.7470   -4.9700   -4.0470 hx        1 MOL      0.039774
     37 H17         5.6660   -4.0580   -3.0880 hx        1 MOL      0.039774
     38 H18         7.4210   -6.1590   -2.1290 hn        1 MOL      0.314762
     39 H19         6.8120   -4.9300   -1.2160 hn        1 MOL      0.314762
     40 H20         5.7580   -5.8810   -1.9640 hn        1 MOL      0.314762
     41 N4          6.0130    0.1670    0.3890 n         1 MOL     -0.363309
     42 C13         5.0520   -0.1710    1.4620 c3        1 MOL     -0.099024
     43 C14         3.6650    0.2490    0.9330 c         1 MOL      0.570767
     44 O6          3.4570    0.9910   -0.0530 o         1 MOL     -0.566766
     45 C15         5.4130    0.7830    2.6240 c3        1 MOL     -0.294061
     46 C16         5.9140    2.2190    2.2340 c         1 MOL      0.799663
     47 O7          5.1670    3.2000    2.0010 o         1 MOL     -0.779645
     48 O8          7.1100    2.4090    1.9460 o         1 MOL     -0.779645
     49 H21         5.6080    0.4460   -0.4970 hn        1 MOL      0.138211
     50 H22         5.1380   -1.2270    1.6960 h1        1 MOL      0.145909
     51 H23         6.2130    0.3460    3.2190 hc        1 MOL      0.111859
     52 H24         4.5510    0.8420    3.2880 hc        1 MOL      0.111859
     53 N5          2.5970   -0.2940    1.5040 n         1 MOL     -0.413202
     54 C17         2.3890   -1.1500    2.6980 c3        1 MOL      0.022413
     55 C18         2.8200   -2.5820    2.3710 c         1 MOL      0.431059
     56 O9          3.2330   -2.9450    1.2510 o         1 MOL     -0.587112
     57 H25         1.7320   -0.1180    1.0190 hn        1 MOL      0.289791
     58 H26         1.3960   -1.0630    3.1180 h1        1 MOL      0.085934
     59 H27         3.0180   -0.7970    3.5200 h1        1 MOL      0.085934
     60 N6          2.6540   -3.4760    3.2930 n         1 MOL     -0.157474
     61 C19         3.1000   -4.9430    3.2770 c3        1 MOL     -0.101793
     62 C20         2.2370   -5.7600    2.3200 c         1 MOL      0.355328
     63 O10         2.6750   -6.8180    1.8320 o         1 MOL     -0.489995
     64 C21         3.0750   -5.6550    4.6270 c3        1 MOL     -0.216398
     65 C22         1.7630   -5.4490    5.3920 c         1 MOL      0.660221
     66 O11         1.4540   -4.3420    5.9040 o         1 MOL     -0.664205
     67 O12         0.9960   -6.4120    5.6150 o         1 MOL     -0.664205
     68 H28         2.2570   -3.1330    4.1560 hn        1 MOL      0.116380
     69 H29         4.1200   -4.8850    2.8970 h1        1 MOL      0.108292
     70 H30         3.8880   -5.1640    5.1680 hc        1 MOL      0.089120
     71 H31         3.4250   -6.6690    4.4320 hc        1 MOL      0.089120
     72 N7          0.9630   -5.2890    2.1050 n         1 MOL     -0.131967
     73 C23        -0.0130   -5.8610    1.1860 c3        1 MOL     -0.122282
     74 C24         0.0230   -5.2480   -0.1940 c         1 MOL      0.506199
     75 O13        -0.4880   -5.8210   -1.1720 o         1 MOL     -0.558089
     76 H32         0.7040   -4.4080    2.5120 hn        1 MOL      0.205577
     77 H33        -1.0340   -5.6610    1.5250 h1        1 MOL      0.106344
     78 H34         0.2030   -6.9300    1.1180 h1        1 MOL      0.106344
     79 N8          0.6440   -4.0570   -0.3560 n         1 MOL     -0.290331
     80 C25         0.8730   -3.3930   -1.6240 c3        1 MOL     -0.012117
     81 C26         0.4520   -1.9430   -1.5570 c         1 MOL      0.136884
     82 O14         0.6420   -1.2320   -0.5810 o         1 MOL     -0.394013
     83 C27         2.3420   -3.4650   -1.9830 c3        1 MOL      0.619464
     84 C28         2.6820   -4.8610   -2.4680 c3        1 MOL     -0.488645
     85 O15         2.6510   -2.5830   -3.0120 oh        1 MOL     -0.670008
     86 H35         1.1220   -3.6260    0.4230 hn        1 MOL      0.184988
     87 H36         0.3410   -3.8060   -2.4880 h1        1 MOL      0.055166
     88 H37         3.0210   -3.3500   -1.1280 h1        1 MOL     -0.060853
     89 H38         3.2910   -1.9240   -2.7300 ho        1 MOL      0.356037
     90 H39         2.5800   -5.5350   -1.6200 hc        1 MOL      0.117871
     91 H40         2.0540   -5.2300   -3.2820 hc        1 MOL      0.117871
     92 H41         3.7510   -4.8550   -2.7150 hc        1 MOL      0.117871
     93 N9         -0.3330   -1.5620   -2.5830 n         1 MOL     -0.008696
     94 C29        -0.8160   -0.1590   -2.7650 c3        1 MOL     -0.059282
     95 C30        -2.2290    0.0310   -2.0940 c         1 MOL      0.428940
     96 O16        -2.6750    1.1090   -1.6430 o         1 MOL     -0.503249
     97 C31        -0.8800    0.1790   -4.2640 c3        1 MOL      0.225325
     98 C32         0.3040   -0.2950   -5.1140 c3        1 MOL     -0.047651
     99 C33        -1.0710    1.7120   -4.3850 c3        1 MOL     -0.335844
    100 C34         1.6190    0.2270   -4.4600 c3        1 MOL     -0.142646
    101 H42        -0.5230   -2.1640   -3.3710 hn        1 MOL      0.214923
    102 H43        -0.2060    0.5050   -2.1480 h1        1 MOL      0.071312
    103 H44        -1.7440   -0.3550   -4.6640 hc        1 MOL     -0.039421
    104 H45         0.1550   -0.0050   -6.1590 hc        1 MOL      0.010685
    105 H46         0.3060   -1.3930   -5.1310 hc        1 MOL      0.010685
    106 H47        -1.1310    2.0100   -5.4260 hc        1 MOL      0.092034
    107 H48        -2.0510    1.9200   -3.9600 hc        1 MOL      0.092034
    108 H49        -0.2400    2.2050   -3.8950 hc        1 MOL      0.092034
    109 H50         2.5060   -0.0350   -5.0410 hc        1 MOL      0.041933
    110 H51         1.6510    1.3130   -4.3830 hc        1 MOL      0.041933
    111 H52         1.6220   -0.1520   -3.4420 hc        1 MOL      0.041933
    112 N10        -2.8710   -1.1090   -2.0710 n         1 MOL     -0.242805
    113 C35        -3.9250   -1.4100   -1.0660 c3        1 MOL     -0.114874
    114 C36        -5.1450   -2.1040   -1.7180 c         1 MOL      0.574068
    115 O17        -5.0820   -2.8210   -2.7300 o         1 MOL     -0.521144
    116 C37        -3.3290   -2.3560    0.0120 c3        1 MOL      0.361193
    117 C38        -2.8260   -3.6630   -0.5390 c3        1 MOL     -0.323202
    118 O18        -2.2400   -1.5830    0.5450 oh        1 MOL     -0.586018
    119 H53        -2.6180   -1.8990   -2.6560 hn        1 MOL      0.164235
    120 H54        -4.2900   -0.5050   -0.5850 h1        1 MOL      0.105735
    121 H55        -4.1180   -2.4420    0.7630 h1        1 MOL      0.030365
    122 H56        -1.7520   -1.2840   -0.2290 ho        1 MOL      0.339326
    123 H57        -2.3990   -4.2950    0.2360 hc        1 MOL      0.081683
    124 H58        -3.7070   -4.1970   -0.8870 hc        1 MOL      0.081683
    125 H59        -2.1480   -3.5350   -1.3840 hc        1 MOL      0.081683
    126 N11        -6.3410   -1.6940   -1.3210 n         1 MOL     -0.541359
    127 C39        -7.5560   -2.0870   -2.0330 c3        1 MOL      0.055420
    128 C40        -8.5130   -0.8410   -2.1730 c         1 MOL      0.610833
    129 O19        -8.8870   -0.4840   -3.2670 o         1 MOL     -0.539831
    130 C41        -8.2480   -3.2600   -1.3270 c3        1 MOL      0.268878
    131 C42        -9.6130   -3.5180   -2.0190 c3        1 MOL     -0.458578
    132 O20        -8.3620   -3.1310    0.0810 oh        1 MOL     -0.650668
    133 H60        -6.3340   -1.2390   -0.4130 hn        1 MOL      0.306770
    134 H61        -7.3020   -2.5120   -3.0080 h1        1 MOL      0.105204
    135 H62        -7.6650   -4.1760   -1.4660 h1        1 MOL      0.050201
    136 H63        -8.5800   -4.0230    0.3880 ho        1 MOL      0.399389
    137 H64        -9.6200   -3.4420   -3.1070 hc        1 MOL      0.124944
    138 H65       -10.0120   -4.4870   -1.7330 hc        1 MOL      0.124944
    139 H66       -10.3910   -2.8200   -1.7060 hc        1 MOL      0.124944
    140 N12        -9.1170   -0.3580   -1.0820 n         1 MOL     -0.509676
    141 C43       -10.1150    0.7240   -0.9520 c3        1 MOL      0.032723
    142 C44        -9.8340    1.7700    0.0950 c         1 MOL      0.537388
    143 O21        -9.3090    1.4960    1.2050 o         1 MOL     -0.557705
    144 C45       -11.4830    0.0320   -0.8740 c3        1 MOL     -0.103034
    145 C46       -11.9900   -0.3480    0.5350 c3        1 MOL     -0.050502
    146 C47       -11.1140   -1.2970    1.3620 c3        1 MOL      0.166696
    147 C48       -11.8280   -1.4370    2.7120 c3        1 MOL      0.090010
    148 N13       -11.2540   -2.5370    3.5420 n4        1 MOL     -0.366959
    149 H67        -8.7770   -0.6890   -0.1870 hn        1 MOL      0.277710
    150 H68       -10.1240    1.2370   -1.9210 h1        1 MOL      0.108408
    151 H69       -11.5170   -0.9170   -1.4220 hc        1 MOL      0.065101
    152 H70       -12.2490    0.6670   -1.3120 hc        1 MOL      0.065101
    153 H71       -12.9380   -0.8750    0.4810 hc        1 MOL      0.011995
    154 H72       -12.1580    0.6020    1.0500 hc        1 MOL      0.011995
    155 H73       -10.0990   -0.9820    1.5920 hc        1 MOL     -0.023357
    156 H74       -11.1420   -2.2890    0.9200 hc        1 MOL     -0.023357
    157 H75       -12.8980   -1.6040    2.5400 hx        1 MOL      0.060144
    158 H76       -11.8590   -0.4840    3.2270 hx        1 MOL      0.060144
    159 H77       -10.3110   -2.2050    3.7380 hn        1 MOL      0.284650
    160 H78       -11.8180   -2.7310    4.3540 hn        1 MOL      0.284650
    161 H79       -11.2070   -3.4160    3.0560 hn        1 MOL      0.284650
    162 N14       -10.2620    3.0080   -0.1120 n         1 MOL     -0.373442
    163 C49       -10.2850    4.1030    0.9240 c3        1 MOL      0.013580
    164 C50        -9.0910    4.6070    1.6250 c         1 MOL      0.427948
    165 O22        -9.2130    4.8820    2.8360 o         1 MOL     -0.520825
    166 C51       -11.1220    5.2060    0.2520 c3        1 MOL      0.100240
    167 C52       -11.6990    6.1560    1.3270 c3        1 MOL     -0.288236
    168 C53       -12.6460    7.2480    0.8190 c         1 MOL      0.761307
    169 O23       -12.1740    8.2120    0.2310 o         1 MOL     -0.665052
    170 O24       -13.8650    7.0510    0.9040 o         1 MOL     -0.665052
    171 H80       -10.6880    3.0330   -1.0240 hn        1 MOL      0.231464
    172 H81       -10.8990    3.6140    1.6860 h1        1 MOL      0.107590
    173 H82       -11.9230    4.7610   -0.3400 hc        1 MOL      0.012005
    174 H83       -10.6320    5.7150   -0.5810 hc        1 MOL      0.012005
    175 H84       -10.9270    6.6980    1.8710 hc        1 MOL      0.055075
    176 H85       -12.2710    5.5260    1.9980 hc        1 MOL      0.055075
    177 N15        -7.8660    4.7270    1.0420 n         1 MOL     -0.338472
    178 C54        -7.5770    4.7340   -0.4170 c3        1 MOL      0.025246
    179 H86        -8.2860    4.0830   -0.9300 h1        1 MOL      0.038084
    180 H87        -7.6730    5.7500   -0.8020 h1        1 MOL      0.038084
    181 H88        -6.5640    4.3730   -0.5900 h1        1 MOL      0.038084
    182 H89        -7.1270    4.7670    1.7160 hn        1 MOL      0.284734
    183 Ca1         6.6920    4.6360    0.5160 Ca        1 MOL      1.819087
    184 O25         4.2870    5.9130    0.3670 oh        1 MOL     -0.918250
    185 H90         3.8090    6.7180    0.5400 ho        1 MOL      0.452697
    186 H91         3.6150    5.2470    0.2410 ho        1 MOL      0.452697
    187 O26         6.7390    5.8870    2.8330 oh        1 MOL     -0.918250
    188 H92         7.3270    5.6100    3.5290 ho        1 MOL      0.452697
    189 H93         5.9950    6.2990    3.2790 ho        1 MOL      0.452697
    190 O27         5.2680    3.0970   -0.8870 oh        1 MOL     -0.918250
    191 H94         4.8040    2.4520   -0.3510 ho        1 MOL      0.452697
    192 H95         5.5260    2.6060   -1.6640 ho        1 MOL      0.452697
@<TRIPOS>BOND
     1    1    2 1   
     2    1    4 1   
     3    1    5 1   
     4    1    6 1   
     5    2    3 2   
     6    2    7 1   
     7    7    8 1   
     8    7   15 1   
     9    8    9 1   
    10    8   11 1   
    11    8   16 1   
    12    9   10 2   
    13    9   19 1   
    14   11   12 1   
    15   11   17 1   
    16   11   18 1   
    17   12   13 1   
    18   12   14 1   
    19   19   20 1   
    20   19   28 1   
    21   20   21 1   
    22   20   23 1   
    23   20   29 1   
    24   21   22 2   
    25   21   41 1   
    26   23   24 1   
    27   23   30 1   
    28   23   31 1   
    29   24   25 1   
    30   24   32 1   
    31   24   33 1   
    32   25   26 1   
    33   25   34 1   
    34   25   35 1   
    35   26   27 1   
    36   26   36 1   
    37   26   37 1   
    38   27   38 1   
    39   27   39 1   
    40   27   40 1   
    41   41   42 1   
    42   41   49 1   
    43   42   43 1   
    44   42   45 1   
    45   42   50 1   
    46   43   44 2   
    47   43   53 1   
    48   45   46 1   
    49   45   51 1   
    50   45   52 1   
    51   46   47 1   
    52   46   48 1   
    53   53   54 1   
    54   53   57 1   
    55   54   55 1   
    56   54   58 1   
    57   54   59 1   
    58   55   56 2   
    59   55   60 1   
    60   60   61 1   
    61   60   68 1   
    62   61   62 1   
    63   61   64 1   
    64   61   69 1   
    65   62   63 2   
    66   62   72 1   
    67   64   65 1   
    68   64   70 1   
    69   64   71 1   
    70   65   66 1   
    71   65   67 1   
    72   72   73 1   
    73   72   76 1   
    74   73   74 1   
    75   73   77 1   
    76   73   78 1   
    77   74   75 2   
    78   74   79 1   
    79   79   80 1   
    80   79   86 1   
    81   80   81 1   
    82   80   83 1   
    83   80   87 1   
    84   81   82 2   
    85   81   93 1   
    86   83   84 1   
    87   83   85 1   
    88   83   88 1   
    89   84   90 1   
    90   84   91 1   
    91   84   92 1   
    92   85   89 1   
    93   93   94 1   
    94   93  101 1   
    95   94   95 1   
    96   94   97 1   
    97   94  102 1   
    98   95   96 2   
    99   95  112 1   
   100   97   98 1   
   101   97   99 1   
   102   97  103 1   
   103   98  100 1   
   104   98  104 1   
   105   98  105 1   
   106   99  106 1   
   107   99  107 1   
   108   99  108 1   
   109  100  109 1   
   110  100  110 1   
   111  100  111 1   
   112  112  113 1   
   113  112  119 1   
   114  113  114 1   
   115  113  116 1   
   116  113  120 1   
   117  114  115 2   
   118  114  126 1   
   119  116  117 1   
   120  116  118 1   
   121  116  121 1   
   122  117  123 1   
   123  117  124 1   
   124  117  125 1   
   125  118  122 1   
   126  126  127 1   
   127  126  133 1   
   128  127  128 1   
   129  127  130 1   
   130  127  134 1   
   131  128  129 2   
   132  128  140 1   
   133  130  131 1   
   134  130  132 1   
   135  130  135 1   
   136  131  137 1   
   137  131  138 1   
   138  131  139 1   
   139  132  136 1   
   140  140  141 1   
   141  140  149 1   
   142  141  142 1   
   143  141  144 1   
   144  141  150 1   
   145  142  143 2   
   146  142  162 1   
   147  144  145 1   
   148  144  151 1   
   149  144  152 1   
   150  145  146 1   
   151  145  153 1   
   152  145  154 1   
   153  146  147 1   
   154  146  155 1   
   155  146  156 1   
   156  147  148 1   
   157  147  157 1   
   158  147  158 1   
   159  148  159 1   
   160  148  160 1   
   161  148  161 1   
   162  162  163 1   
   163  162  171 1   
   164  163  164 1   
   165  163  166 1   
   166  163  172 1   
   167  164  165 2   
   168  164  177 1   
   169  166  167 1   
   170  166  173 1   
   171  166  174 1   
   172  167  168 1   
   173  167  175 1   
   174  167  176 1   
   175  168  169 1   
   176  168  170 1   
   177  177  178 1   
   178  177  182 1   
   179  178  179 1   
   180  178  180 1   
   181  178  181 1   
   182  184  185 1   
   183  184  186 1   
   184  187  188 1   
   185  187  189 1   
   186  190  191 1   
   187  190  192 1   
@<TRIPOS>SUBSTRUCTURE
     1 MOL         1 TEMP              0 ****  ****    0 ROOT
