@<TRIPOS>MOLECULE
MOL
  182   178     1     0     0
SMALL
resp


@<TRIPOS>ATOM
      1 C1          0.3750   -4.1030    6.3150 c3        1 MOL     -0.365697
      2 C2          0.4450   -3.6940    4.8440 c         1 MOL      0.767731
      3 O1         -0.5470   -3.5180    4.1210 o         1 MOL     -0.617807
      4 H1          1.3390   -4.5050    6.6260 hc        1 MOL      0.103543
      5 H2          0.1310   -3.2330    6.9240 hc        1 MOL      0.103543
      6 H3         -0.3940   -4.8640    6.4440 hc        1 MOL      0.103543
      7 N1          1.7040   -3.5800    4.3960 n         1 MOL     -0.582983
      8 C3          2.0320   -3.2560    2.9350 c3        1 MOL      0.248222
      9 C4          2.2380   -4.4760    2.0250 c         1 MOL      0.487155
     10 O2          2.9670   -5.3880    2.4840 o         1 MOL     -0.566077
     11 C5          3.1850   -2.2800    2.8240 c3        1 MOL     -0.139749
     12 C6          3.3150   -1.5890    1.4410 c         1 MOL      0.401925
     13 O3          4.1710   -0.6860    1.1830 o         1 MOL     -0.623185
     14 O4          2.4480   -1.8180    0.5600 o         1 MOL     -0.623185
     15 H4          2.4560   -3.6010    5.0600 hn        1 MOL      0.318475
     16 H5          1.2450   -2.6540    2.4790 h1        1 MOL     -0.208945
     17 H6          4.0770   -2.8520    3.0570 hc        1 MOL      0.072574
     18 H7          3.2020   -1.4640    3.5520 hc        1 MOL      0.072574
     19 N2          1.7220   -4.5520    0.8210 n         1 MOL     -0.146743
     20 C7          1.8110   -5.7350   -0.1550 c3        1 MOL     -0.167154
     21 C8          3.1150   -5.6930   -0.9910 c         1 MOL      0.631665
     22 O5          3.4170   -6.7720   -1.4430 o         1 MOL     -0.560446
     23 C9          0.5310   -5.9920   -0.9260 c3        1 MOL     -0.045977
     24 C10         0.1650   -4.6770   -1.7260 c3        1 MOL     -0.025608
     25 C11        -1.2220   -4.6890   -2.3170 c3        1 MOL     -0.107752
     26 C12        -1.6260   -3.2980   -2.9310 c3        1 MOL      0.124782
     27 N3         -2.9820   -3.3460   -3.4400 n4        1 MOL     -0.423919
     28 H8          1.0390   -3.8300    0.6540 hn        1 MOL      0.129562
     29 H9          2.0360   -6.6120    0.4550 h1        1 MOL      0.140514
     30 H10        -0.2910   -6.2230   -0.2370 hc        1 MOL      0.058384
     31 H11         0.6110   -6.8950   -1.5280 hc        1 MOL      0.058384
     32 H12         0.7680   -4.5340   -2.6260 hc        1 MOL      0.070464
     33 H13         0.2690   -3.8570   -1.0220 hc        1 MOL      0.070464
     34 H14        -1.9890   -4.8460   -1.5650 hc        1 MOL      0.046054
     35 H15        -1.2090   -5.4870   -3.0500 hc        1 MOL      0.046054
     36 H16        -0.9180   -3.0960   -3.7420 hx        1 MOL      0.033494
     37 H17        -1.5180   -2.4980   -2.2020 hx        1 MOL      0.033494
     38 H18        -2.9900   -3.9610   -4.2430 hn        1 MOL      0.299029
     39 H19        -3.7320   -3.5560   -2.8040 hn        1 MOL      0.299029
     40 H20        -3.1570   -2.4200   -3.8100 hn        1 MOL      0.299029
     41 N4          3.7220   -4.5420   -1.1260 n         1 MOL     -0.440120
     42 C13         5.0320   -4.4450   -1.7920 c3        1 MOL      0.038406
     43 C14         6.2240   -3.9210   -0.9300 c         1 MOL      0.410353
     44 O6          7.3580   -4.2000   -1.2980 o         1 MOL     -0.533540
     45 C15         4.9400   -3.5730   -3.0530 c3        1 MOL     -0.379043
     46 C16         4.1770   -2.3020   -2.9090 c         1 MOL      0.780412
     47 O7          3.6790   -1.8000   -3.9160 o         1 MOL     -0.724948
     48 O8          4.0640   -1.7630   -1.7240 o         1 MOL     -0.724948
     49 H21         3.2760   -3.7130   -0.7510 hn        1 MOL      0.200206
     50 H22         5.3750   -5.4420   -2.0950 h1        1 MOL      0.121814
     51 H23         4.5560   -4.1990   -3.8610 hc        1 MOL      0.137839
     52 H24         5.8910   -3.3120   -3.5080 hc        1 MOL      0.137839
     53 N5          5.9050   -3.1960    0.1170 n         1 MOL     -0.027622
     54 C17         6.8400   -2.6130    1.0370 c3        1 MOL     -0.263671
     55 C18         7.3740   -1.2600    0.6120 c         1 MOL      0.644544
     56 O9          8.3400   -0.8120    1.2330 o         1 MOL     -0.569140
     57 H25         4.9360   -2.9440    0.1570 hn        1 MOL      0.115657
     58 H26         7.7260   -3.2410    1.1350 h1        1 MOL      0.123668
     59 H27         6.3500   -2.3740    1.9810 h1        1 MOL      0.123668
     60 N6          6.8250   -0.5720   -0.4340 n         1 MOL     -0.390376
     61 C19         7.3100    0.7310   -1.0260 c3        1 MOL      0.270574
     62 C20         6.1300    1.7460   -0.9110 c         1 MOL      0.467849
     63 O10         5.0030    1.3250   -1.1040 o         1 MOL     -0.505650
     64 C21         7.8730    0.5640   -2.4410 c3        1 MOL     -0.202511
     65 C22         8.8160    1.7290   -2.8480 c         1 MOL      0.610679
     66 N7          9.8290    2.2000   -2.0910 n         1 MOL     -0.739523
     67 O11         8.8230    2.1720   -4.0090 o         1 MOL     -0.548002
     68 H28         5.9040   -0.8620   -0.7460 hn        1 MOL      0.186599
     69 H29         8.1310    1.0950   -0.3990 h1        1 MOL     -0.049534
     70 H30         6.9900    0.6810   -3.0640 hc        1 MOL      0.077630
     71 H31         8.3670   -0.4050   -2.4690 hc        1 MOL      0.077630
     72 H32         9.9070    2.0630   -1.1000 hn        1 MOL      0.353216
     73 H33        10.4620    2.8530   -2.5180 hn        1 MOL      0.353216
     74 N8          6.3880    3.0560   -0.8000 n         1 MOL     -0.384464
     75 C23         5.3250    4.0650   -1.0610 c3        1 MOL     -0.171964
     76 C24         4.4040    4.2020    0.1340 c         1 MOL      0.678860
     77 O12         4.7760    3.9990    1.3160 o         1 MOL     -0.515984
     78 H34         7.3400    3.3800   -0.6890 hn        1 MOL      0.273766
     79 H35         4.9030    3.6320   -1.9600 h1        1 MOL      0.106079
     80 H36         5.8120    4.9990   -1.3310 h1        1 MOL      0.106079
     81 N9          3.1650    4.6020   -0.0670 n         1 MOL     -0.742411
     82 C25         2.0650    4.6190    0.8840 c3        1 MOL      0.551732
     83 C26         1.7020    3.1320    1.2780 c         1 MOL      0.426639
     84 O13         2.3140    2.1430    0.7680 o         1 MOL     -0.541762
     85 C27         0.8850    5.4990    0.3880 c3        1 MOL     -0.326382
     86 C28         1.0830    7.0410    0.2320 ca        1 MOL      0.075543
     87 C29        -0.0480    7.7440   -0.0620 ca        1 MOL     -0.142686
     88 C30         2.3660    7.6910    0.4540 ca        1 MOL     -0.142686
     89 C31         0.0130    9.1610   -0.0420 ca        1 MOL     -0.296554
     90 C32         2.4430    9.0990    0.3880 ca        1 MOL     -0.296554
     91 C33         1.2580    9.8310    0.0870 ca        1 MOL      0.386330
     92 O14         1.2130   11.1980   -0.1840 oh        1 MOL     -0.492241
     93 H37         2.9610    4.8470   -1.0190 hn        1 MOL      0.322967
     94 H38         2.3790    4.9970    1.8670 h1        1 MOL     -0.000909
     95 H39         0.0470    5.2600    1.0440 hc        1 MOL      0.064379
     96 H40         0.5910    5.0640   -0.5660 hc        1 MOL      0.064379
     97 H41        -0.9850    7.2290   -0.1590 ha        1 MOL      0.142963
     98 H42         3.2160    7.0720    0.6830 ha        1 MOL      0.142963
     99 H43        -0.8870    9.7510   -0.0830 ha        1 MOL      0.177378
    100 H44         3.4150    9.5400    0.5430 ha        1 MOL      0.177378
    101 H45         0.3320   11.5410   -0.3680 ho        1 MOL      0.361775
    102 N10         0.7520    2.9460    2.1960 n         1 MOL     -0.589710
    103 C34         0.2470    1.6540    2.6800 c3        1 MOL      0.097565
    104 C35        -0.1230    0.5490    1.6500 c         1 MOL      0.341489
    105 O15         0.7210    0.1050    0.9190 o         1 MOL     -0.197263
    106 C36         1.1760    0.9830    3.7720 c3        1 MOL      0.274348
    107 C37         0.4440   -0.1450    4.5120 c3        1 MOL     -0.020663
    108 C38         1.7810    1.9340    4.7250 c3        1 MOL     -0.291152
    109 C39        -0.6000    0.3180    5.5840 c3        1 MOL     -0.306176
    110 H46         0.3090    3.7260    2.6500 hn        1 MOL      0.339032
    111 H47        -0.7140    1.7690    3.1930 h1        1 MOL      0.031581
    112 H48         2.0230    0.5590    3.2250 hc        1 MOL      0.039143
    113 H49         1.1720   -0.8080    4.9620 hc        1 MOL      0.044634
    114 H50        -0.1780   -0.7770    3.8720 hc        1 MOL      0.044634
    115 H51         2.3430    1.3700    5.4760 hc        1 MOL      0.066991
    116 H52         2.4010    2.6880    4.2260 hc        1 MOL      0.066991
    117 H53         1.0160    2.5230    5.2180 hc        1 MOL      0.066991
    118 H54        -1.4280    0.7820    5.0530 hc        1 MOL      0.074149
    119 H55        -1.0400   -0.5470    6.0680 hc        1 MOL      0.074149
    120 H56        -0.2040    1.0570    6.2730 hc        1 MOL      0.074149
    121 N11        -1.3900    0.1540    1.5240 n         1 MOL     -0.529037
    122 C40        -1.7850   -0.8680    0.6270 c3        1 MOL      0.102519
    123 C41        -3.1720   -0.7300   -0.0010 c         1 MOL      0.646889
    124 O16        -3.3840   -1.1410   -1.1250 o         1 MOL     -0.538450
    125 C42        -1.8560   -2.1340    1.3960 c3        1 MOL      0.204501
    126 O17        -2.6710   -2.0300    2.5730 oh        1 MOL     -0.626552
    127 H57        -2.1240    0.4820    2.1470 hn        1 MOL      0.296044
    128 H58        -0.9670   -0.9980   -0.0790 h1        1 MOL      0.076945
    129 H59        -0.9160   -2.5550    1.7520 h1        1 MOL      0.004393
    130 H60        -2.3350   -2.8920    0.7830 h1        1 MOL      0.004393
    131 H61        -2.3360   -2.7010    3.1610 ho        1 MOL      0.423513
    132 N12        -4.0960    0.0090    0.6710 n         1 MOL     -0.708850
    133 C43        -5.4750    0.1110    0.1550 c3        1 MOL      0.259254
    134 C44        -5.5460    0.8360   -1.1710 c         1 MOL      0.596484
    135 O18        -4.6630    1.7020   -1.3970 o         1 MOL     -0.587289
    136 C45        -6.4460    0.8220    1.1380 c3        1 MOL     -0.339418
    137 H62        -3.8350    0.1950    1.6370 hn        1 MOL      0.380382
    138 H63        -5.8720   -0.8900    0.0030 h1        1 MOL      0.037644
    139 H64        -6.3180    0.3730    2.1220 hc        1 MOL      0.111904
    140 H65        -6.1390    1.8730    1.1910 hc        1 MOL      0.111904
    141 H66        -7.4680    0.7560    0.7500 hc        1 MOL      0.111904
    142 N13        -6.5180    0.6640   -1.9930 n         1 MOL     -0.659636
    143 C46        -7.7510   -0.1730   -1.8250 c3        1 MOL      0.278226
    144 C47        -8.9590    0.5720   -2.3910 c         1 MOL      0.445977
    145 O19        -8.7990    1.2590   -3.4030 o         1 MOL     -0.549575
    146 C48        -7.6400   -1.5520   -2.4710 c3        1 MOL     -0.341811
    147 H67        -6.4680    1.1150   -2.8940 hn        1 MOL      0.362011
    148 H68        -7.9570   -0.4630   -0.7970 h1        1 MOL      0.042562
    149 H69        -8.5750   -2.0980   -2.4410 hc        1 MOL      0.097208
    150 H70        -7.4730   -1.4980   -3.5520 hc        1 MOL      0.097208
    151 H71        -6.8050   -2.0480   -1.9720 hc        1 MOL      0.097208
    152 N14       -10.1280    0.5300   -1.7760 n         1 MOL     -0.365497
    153 C49       -10.4320    0.1400   -0.4000 c3        1 MOL     -0.020392
    154 C50        -9.9800    1.2330    0.6670 c         1 MOL      0.321493
    155 O20        -9.8760    0.9140    1.8630 o         1 MOL     -0.475126
    156 C51       -11.9710   -0.1250   -0.1830 c3        1 MOL     -0.043453
    157 C52       -12.3400   -1.3980   -0.9430 c3        1 MOL     -0.138916
    158 C53       -13.7990   -1.7990   -0.8060 c         1 MOL      0.703254
    159 O21       -14.3910   -1.9790    0.2920 o         1 MOL     -0.672720
    160 O22       -14.4360   -1.9370   -1.8730 o         1 MOL     -0.672720
    161 H72       -10.7660    1.1720   -2.2160 hn        1 MOL      0.305828
    162 H73        -9.8250   -0.7350   -0.1800 h1        1 MOL      0.086942
    163 H74       -12.5630    0.6750   -0.6300 hc        1 MOL      0.056002
    164 H75       -12.2450   -0.2730    0.8580 hc        1 MOL      0.056002
    165 H76       -11.8580   -2.2950   -0.5490 hc        1 MOL      0.012659
    166 H77       -12.0320   -1.2470   -1.9730 hc        1 MOL      0.012659
    167 N15        -9.8410    2.4810    0.2310 n         1 MOL     -0.206865
    168 C54        -9.3040    3.6930    0.9340 c3        1 MOL     -0.149510
    169 H78        -8.9730    3.4150    1.9360 h1        1 MOL      0.092094
    170 H79        -8.4600    4.0950    0.3730 h1        1 MOL      0.092094
    171 H80       -10.0860    4.4480    1.0070 h1        1 MOL      0.092094
    172 H81       -10.2620    2.6020   -0.6740 hn        1 MOL      0.208540
    173 Ca1         2.6150    0.2130   -1.0160 Ca        1 MOL      1.708575
    174 O23         2.9660    0.6350   -3.5300 oh        1 MOL     -0.893509
    175 H82         3.1520   -0.2440   -3.8580 ho        1 MOL      0.430984
    176 H83         3.4450    1.2220   -4.1120 ho        1 MOL      0.430984
    177 O24         0.4800   -0.7040   -2.1650 oh        1 MOL     -0.893509
    178 H84         0.6680   -1.2750   -2.9140 ho        1 MOL      0.430984
    179 H85        -0.0410    0.0040   -2.5330 ho        1 MOL      0.430984
    180 O25         1.0610    2.1350   -1.8460 oh        1 MOL     -0.893509
    181 H86         0.1910    2.3170   -1.4740 ho        1 MOL      0.430984
    182 H87         1.3020    2.9450   -2.2960 ho        1 MOL      0.430984
@<TRIPOS>BOND
     1    1    2 1   
     2    1    4 1   
     3    1    5 1   
     4    1    6 1   
     5    2    3 2   
     6    2    7 1   
     7    7    8 1   
     8    7   15 1   
     9    8    9 1   
    10    8   11 1   
    11    8   16 1   
    12    9   10 2   
    13    9   19 1   
    14   11   12 1   
    15   11   17 1   
    16   11   18 1   
    17   12   13 1   
    18   12   14 1   
    19   19   20 1   
    20   19   28 1   
    21   20   21 1   
    22   20   23 1   
    23   20   29 1   
    24   21   22 2   
    25   21   41 1   
    26   23   24 1   
    27   23   30 1   
    28   23   31 1   
    29   24   25 1   
    30   24   32 1   
    31   24   33 1   
    32   25   26 1   
    33   25   34 1   
    34   25   35 1   
    35   26   27 1   
    36   26   36 1   
    37   26   37 1   
    38   27   38 1   
    39   27   39 1   
    40   27   40 1   
    41   41   42 1   
    42   41   49 1   
    43   42   43 1   
    44   42   45 1   
    45   42   50 1   
    46   43   44 2   
    47   43   53 1   
    48   45   46 1   
    49   45   51 1   
    50   45   52 1   
    51   46   47 1   
    52   46   48 1   
    53   53   54 1   
    54   53   57 1   
    55   54   55 1   
    56   54   58 1   
    57   54   59 1   
    58   55   56 2   
    59   55   60 1   
    60   60   61 1   
    61   60   68 1   
    62   61   62 1   
    63   61   64 1   
    64   61   69 1   
    65   62   63 2   
    66   62   74 1   
    67   64   65 1   
    68   64   70 1   
    69   64   71 1   
    70   65   66 1   
    71   65   67 2   
    72   66   72 1   
    73   66   73 1   
    74   74   75 1   
    75   74   78 1   
    76   75   76 1   
    77   75   79 1   
    78   75   80 1   
    79   76   77 2   
    80   76   81 1   
    81   81   82 1   
    82   81   93 1   
    83   82   83 1   
    84   82   85 1   
    85   82   94 1   
    86   83   84 2   
    87   83  102 1   
    88   85   86 1   
    89   85   95 1   
    90   85   96 1   
    91   86   87 ar  
    92   86   88 ar  
    93   87   89 ar  
    94   87   97 1   
    95   88   90 ar  
    96   88   98 1   
    97   89   91 ar  
    98   89   99 1   
    99   90   91 ar  
   100   90  100 1   
   101   91   92 1   
   102   92  101 1   
   103  102  103 1   
   104  102  110 1   
   105  103  104 1   
   106  103  106 1   
   107  103  111 1   
   108  104  105 2   
   109  104  121 1   
   110  106  107 1   
   111  106  108 1   
   112  106  112 1   
   113  107  109 1   
   114  107  113 1   
   115  107  114 1   
   116  108  115 1   
   117  108  116 1   
   118  108  117 1   
   119  109  118 1   
   120  109  119 1   
   121  109  120 1   
   122  121  122 1   
   123  121  127 1   
   124  122  123 1   
   125  122  125 1   
   126  122  128 1   
   127  123  124 2   
   128  123  132 1   
   129  125  126 1   
   130  125  129 1   
   131  125  130 1   
   132  126  131 1   
   133  132  133 1   
   134  132  137 1   
   135  133  134 1   
   136  133  136 1   
   137  133  138 1   
   138  134  135 2   
   139  134  142 1   
   140  136  139 1   
   141  136  140 1   
   142  136  141 1   
   143  142  143 1   
   144  142  147 1   
   145  143  144 1   
   146  143  146 1   
   147  143  148 1   
   148  144  145 2   
   149  144  152 1   
   150  146  149 1   
   151  146  150 1   
   152  146  151 1   
   153  152  153 1   
   154  152  161 1   
   155  153  154 1   
   156  153  156 1   
   157  153  162 1   
   158  154  155 2   
   159  154  167 1   
   160  156  157 1   
   161  156  163 1   
   162  156  164 1   
   163  157  158 1   
   164  157  165 1   
   165  157  166 1   
   166  158  159 1   
   167  158  160 1   
   168  167  168 1   
   169  167  172 1   
   170  168  169 1   
   171  168  170 1   
   172  168  171 1   
   173  174  175 1   
   174  174  176 1   
   175  177  178 1   
   176  177  179 1   
   177  180  181 1   
   178  180  182 1   
@<TRIPOS>SUBSTRUCTURE
     1 MOL         1 TEMP              0 ****  ****    0 ROOT
