@<TRIPOS>MOLECULE
MOL
  181   177     1     0     0
SMALL
resp


@<TRIPOS>ATOM
      1 C1          9.7240    6.8300    1.0860 c3        1 MOL     -0.366843
      2 C2          9.4900    5.3220    1.4970 c         1 MOL      0.521972
      3 O1          9.2650    4.9450    2.6440 o         1 MOL     -0.489242
      4 H1         10.6280    6.9060    0.4820 hc        1 MOL      0.101447
      5 H2          8.8710    7.1870    0.5090 hc        1 MOL      0.101447
      6 H3          9.8360    7.4390    1.9840 hc        1 MOL      0.101447
      7 N1          9.2800    4.3800    0.5200 n         1 MOL     -0.306529
      8 C3          9.4190    4.5040   -0.9540 c3        1 MOL     -0.105682
      9 C4          9.8170    3.1870   -1.6510 c         1 MOL      0.572342
     10 O2          9.0430    2.3310   -2.1230 o         1 MOL     -0.517712
     11 C5          8.1060    5.0500   -1.5630 c3        1 MOL     -0.060767
     12 C6          6.7720    4.3650   -1.1670 c         1 MOL      0.796257
     13 O3          5.7440    4.9830   -1.4830 o         1 MOL     -0.715547
     14 O4          6.7010    3.3320   -0.4930 o         1 MOL     -0.715547
     15 H4          9.1120    3.4670    0.9180 hn        1 MOL      0.204787
     16 H5         10.2410    5.1840   -1.1840 h1        1 MOL      0.059923
     17 H6          8.1180    4.9190   -2.6490 hc        1 MOL     -0.007567
     18 H7          7.9620    6.1220   -1.4580 hc        1 MOL     -0.007567
     19 N2         11.1540    3.0220   -1.8680 n         1 MOL     -0.531062
     20 C7         11.8350    1.8940   -2.4710 c3        1 MOL      0.261640
     21 C8         11.6410    0.6110   -1.7390 c         1 MOL      0.469490
     22 O5         11.9390   -0.5070   -2.1980 o         1 MOL     -0.580920
     23 C9         13.3200    2.2330   -2.6320 c3        1 MOL     -0.444831
     24 H8         11.7100    3.7930   -1.5260 hn        1 MOL      0.302920
     25 H9         11.4480    1.5910   -3.4410 h1        1 MOL      0.036622
     26 H10        13.4160    3.2450   -3.0240 hc        1 MOL      0.125605
     27 H11        13.8910    2.2330   -1.6990 hc        1 MOL      0.125605
     28 H12        13.7280    1.3940   -3.1970 hc        1 MOL      0.125605
     29 N3         11.0410    0.6100   -0.5530 n         1 MOL     -0.311229
     30 C10        10.7200   -0.6130    0.2530 c3        1 MOL      0.004287
     31 C11         9.8300   -1.6870   -0.3490 c         1 MOL      0.423576
     32 O6          8.7380   -1.3020   -0.7430 o         1 MOL     -0.411392
     33 C12        10.2820   -0.2120    1.6510 c3        1 MOL     -0.174102
     34 C13         9.4660    1.0410    1.8750 c         1 MOL      0.649221
     35 O7          8.7280    1.4490    0.9700 o         1 MOL     -0.634623
     36 O8          9.4660    1.5580    3.0500 o         1 MOL     -0.634623
     37 H13        10.6360    1.4710   -0.2150 hn        1 MOL      0.147588
     38 H14        11.6850   -1.1090    0.3250 h1        1 MOL      0.066355
     39 H15        11.1230   -0.2320    2.3480 hc        1 MOL      0.057846
     40 H16         9.7040   -1.0530    2.0370 hc        1 MOL      0.057846
     41 N4         10.1180   -3.0250   -0.3510 n         1 MOL     -0.399814
     42 C14         9.1510   -4.0050   -0.7740 c3        1 MOL      0.150346
     43 C15         8.2240   -4.3100    0.3470 c         1 MOL      0.462581
     44 O9          8.4620   -5.2240    1.1860 o         1 MOL     -0.552744
     45 H17        11.0210   -3.3450   -0.0190 hn        1 MOL      0.293422
     46 H18         9.5530   -4.9400   -1.1630 h1        1 MOL      0.018852
     47 H19         8.5520   -3.6760   -1.6190 h1        1 MOL      0.018852
     48 N5          7.0820   -3.6320    0.3200 n         1 MOL     -0.399312
     49 C16         6.0310   -3.5620    1.4270 c3        1 MOL      0.115225
     50 C17         4.5480   -3.3220    0.9750 c         1 MOL      0.497467
     51 O10         4.2550   -2.6480   -0.0280 o         1 MOL     -0.501972
     52 C18         6.5860   -2.5360    2.4160 c3        1 MOL     -0.413543
     53 C19         6.1060   -1.1540    2.1640 c         1 MOL      0.682309
     54 N6          5.2860   -0.5950    2.9600 n         1 MOL     -0.653010
     55 O11         6.5660   -0.5460    1.1930 o         1 MOL     -0.548940
     56 H20         6.9020   -2.9560   -0.4050 hn        1 MOL      0.213756
     57 H21         6.0890   -4.5910    1.7890 h1        1 MOL      0.101216
     58 H22         7.6690   -2.6400    2.4580 hc        1 MOL      0.128042
     59 H23         6.2850   -2.9210    3.3890 hc        1 MOL      0.128042
     60 H24         4.8870   -1.1720    3.6860 hn        1 MOL      0.347252
     61 H25         4.8660    0.3110    2.7650 hn        1 MOL      0.347252
     62 N7          3.5190   -3.9350    1.6510 n         1 MOL     -0.496306
     63 C20         2.0220   -3.8800    1.3210 c3        1 MOL     -0.040290
     64 C21         1.1050   -4.7970    2.2450 c         1 MOL      0.589810
     65 O12         1.6150   -5.1850    3.3170 o         1 MOL     -0.543798
     66 H26         3.8070   -4.5740    2.3880 hn        1 MOL      0.285560
     67 H27         1.9280   -4.1200    0.2630 h1        1 MOL      0.114399
     68 H28         1.7090   -2.8360    1.3550 h1        1 MOL      0.114399
     69 N8         -0.1610   -5.1920    1.8390 n         1 MOL     -0.591949
     70 C22        -0.9060   -4.4980    0.7490 c3        1 MOL      0.048877
     71 C23        -2.0930   -3.7770    1.3910 c         1 MOL      0.620126
     72 O13        -2.8780   -4.3460    2.1040 o         1 MOL     -0.543200
     73 C24        -1.3210   -5.4850   -0.2880 c3        1 MOL      0.281573
     74 C25        -1.7840   -4.7300   -1.5560 c3        1 MOL     -0.105990
     75 O14        -0.1230   -6.1750   -0.7430 oh        1 MOL     -0.635037
     76 H29        -0.6930   -5.7200    2.5100 hn        1 MOL      0.352728
     77 H30        -0.3940   -3.7080    0.1890 h1        1 MOL      0.045372
     78 H31        -2.0790   -6.1820    0.0720 h1        1 MOL      0.028855
     79 H32        -0.2250   -7.1020   -0.5430 ho        1 MOL      0.386460
     80 H33        -2.6190   -4.0450   -1.3810 hc        1 MOL      0.045167
     81 H34        -0.9900   -4.3370   -2.1860 hc        1 MOL      0.045167
     82 H35        -2.1200   -5.5110   -2.2410 hc        1 MOL      0.045167
     83 N9         -2.1300   -2.4550    1.1110 n         1 MOL     -0.654514
     84 C26        -3.3270   -1.5650    1.1660 c3        1 MOL     -0.114900
     85 C27        -3.5760   -1.1130   -0.3560 c         1 MOL      0.641791
     86 O15        -2.6170   -0.6710   -0.9840 o         1 MOL     -0.568075
     87 C28        -3.2010   -0.3840    2.1330 c3        1 MOL      0.065747
     88 C29        -2.6630   -1.0630    3.4590 c3        1 MOL      0.106867
     89 C30        -4.5260    0.3230    2.3110 c3        1 MOL      0.001710
     90 C31        -2.7240   -0.0320    4.6250 c3        1 MOL     -0.230460
     91 H36        -1.4080   -1.9940    0.5830 hn        1 MOL      0.329854
     92 H37        -4.1660   -2.1650    1.5340 h1        1 MOL      0.125061
     93 H38        -2.3900    0.3110    1.9180 hc        1 MOL      0.029956
     94 H39        -1.6290   -1.4020    3.5250 hc        1 MOL      0.012920
     95 H40        -3.2450   -1.9140    3.8050 hc        1 MOL      0.012920
     96 H41        -4.5240    1.2910    2.8280 hc        1 MOL      0.016519
     97 H42        -4.8950    0.6550    1.3440 hc        1 MOL      0.016519
     98 H43        -5.2560   -0.3410    2.7660 hc        1 MOL      0.016519
     99 H44        -2.3080    0.9300    4.2930 hc        1 MOL      0.036461
    100 H45        -3.7490    0.0640    4.9590 hc        1 MOL      0.036461
    101 H46        -2.0920   -0.3350    5.4550 hc        1 MOL      0.036461
    102 N10        -4.8170   -1.1370   -0.8910 n         1 MOL     -0.606649
    103 C32        -6.0560   -1.8050   -0.3830 c3        1 MOL      0.397742
    104 C33        -7.3460   -1.2090   -1.0410 c         1 MOL      0.466358
    105 O16        -7.2160   -0.5680   -2.0980 o         1 MOL     -0.463001
    106 C34        -5.9920   -3.3200   -0.5560 c3        1 MOL     -0.171021
    107 C35        -5.9900   -3.7530   -2.0820 c         1 MOL      0.639803
    108 O17        -5.0620   -3.4140   -2.8690 o         1 MOL     -0.685260
    109 O18        -7.0360   -4.3420   -2.4710 o         1 MOL     -0.685260
    110 H47        -4.8940   -0.6640   -1.7730 hn        1 MOL      0.355193
    111 H48        -6.1360   -1.5660    0.6820 h1        1 MOL     -0.082105
    112 H49        -6.8970   -3.6790   -0.0640 hc        1 MOL     -0.013296
    113 H50        -5.0850   -3.7120   -0.0950 hc        1 MOL     -0.013296
    114 N11        -8.5850   -1.2820   -0.4400 n         1 MOL     -0.605826
    115 C36        -9.8170   -0.6390   -0.7740 c3        1 MOL      0.266113
    116 C37       -10.8240   -0.4440    0.3900 c         1 MOL      0.419845
    117 O19       -10.8440   -1.2450    1.2570 o         1 MOL     -0.519695
    118 C38       -10.4640   -1.4710   -1.8970 c3        1 MOL     -0.067186
    119 C39       -11.6720   -0.7930   -2.5790 ca        1 MOL     -0.074716
    120 C40       -12.9820   -1.1010   -2.1680 ca        1 MOL     -0.051830
    121 C41       -11.5010   -0.0290   -3.7360 ca        1 MOL     -0.051830
    122 C42       -14.0970   -0.4990   -2.7560 ca        1 MOL     -0.184300
    123 C43       -12.6120    0.6480   -4.2510 ca        1 MOL     -0.184300
    124 C44       -13.9200    0.4040   -3.8060 ca        1 MOL     -0.085921
    125 H51        -8.5230   -1.6480    0.4990 hn        1 MOL      0.317531
    126 H52        -9.5640    0.2870   -1.2850 h1        1 MOL      0.067782
    127 H53       -10.8270   -2.4490   -1.5820 hc        1 MOL      0.072471
    128 H54        -9.6940   -1.7510   -2.6230 hc        1 MOL      0.072471
    129 H55       -13.1180   -1.8960   -1.4480 ha        1 MOL      0.109335
    130 H56       -10.5320    0.1840   -4.1410 ha        1 MOL      0.109335
    131 H57       -15.0830   -0.6690   -2.3280 ha        1 MOL      0.116604
    132 H58       -12.5850    1.3690   -5.0520 ha        1 MOL      0.116604
    133 H59       -14.7800    0.8700   -4.2630 ha        1 MOL      0.093099
    134 N12       -11.6630    0.6100    0.4480 n         1 MOL     -0.258780
    135 C45       -11.5230    1.7850   -0.3940 c3        1 MOL     -0.138193
    136 C46       -10.5130    2.8330    0.0020 c         1 MOL      0.576480
    137 O20       -10.2660    3.7520   -0.7650 o         1 MOL     -0.532125
    138 C47       -12.9850    2.2870   -0.5330 c3        1 MOL      0.036438
    139 C48       -13.4880    1.9560    0.9050 c3        1 MOL     -0.111661
    140 C49       -12.8220    0.6050    1.2700 c3        1 MOL      0.033803
    141 H60       -11.1100    1.4670   -1.3490 h1        1 MOL      0.133925
    142 H61       -13.0680    3.3290   -0.8330 hc        1 MOL      0.022024
    143 H62       -13.5390    1.6830   -1.2470 hc        1 MOL      0.022024
    144 H63       -13.1650    2.7750    1.5580 hc        1 MOL      0.032908
    145 H64       -14.5540    1.7710    0.9020 hc        1 MOL      0.032908
    146 H65       -12.7340    0.5560    2.3570 h1        1 MOL      0.047074
    147 H66       -13.5820   -0.1640    1.0910 h1        1 MOL      0.047074
    148 N13        -9.8100    2.7020    1.1460 n         1 MOL     -0.492546
    149 C50        -8.7070    3.6290    1.5700 c3        1 MOL      0.275659
    150 C51        -8.8380    3.8730    3.0750 c         1 MOL      0.385223
    151 O21        -9.2260    2.9550    3.7210 o         1 MOL     -0.569653
    152 C52        -7.2850    2.9930    1.3840 c3        1 MOL     -0.003347
    153 C53        -6.8220    2.7800   -0.0700 c3        1 MOL     -0.282916
    154 C54        -6.6000    4.1010   -0.8340 c         1 MOL      0.770904
    155 O22        -6.2750    5.1440   -0.2650 o         1 MOL     -0.724748
    156 O23        -6.7270    4.0770   -2.0850 o         1 MOL     -0.724748
    157 H67       -10.0390    1.9230    1.7470 hn        1 MOL      0.299595
    158 H68        -8.7730    4.5730    1.0260 h1        1 MOL      0.053702
    159 H69        -7.2600    2.0400    1.9110 hc        1 MOL      0.001423
    160 H70        -6.5710    3.6810    1.8340 hc        1 MOL      0.001423
    161 H71        -7.5960    2.1390   -0.5080 hc        1 MOL      0.048060
    162 H72        -5.8380    2.3250   -0.0200 hc        1 MOL      0.048060
    163 N14        -8.4230    4.9500    3.7470 n         1 MOL     -0.391900
    164 C55        -7.9260    6.2260    3.2360 c3        1 MOL     -0.052472
    165 H73        -6.9920    6.0620    2.6980 h1        1 MOL      0.055955
    166 H74        -8.6620    6.6590    2.5590 h1        1 MOL      0.055955
    167 H75        -7.7510    6.9090    4.0670 h1        1 MOL      0.055955
    168 H76        -8.2820    4.7830    4.7370 hn        1 MOL      0.286938
    169 Ca1         7.1960    0.7650   -1.0280 Ca        1 MOL      1.648136
    170 O24         5.8900    1.5340   -3.1590 oh        1 MOL     -0.816408
    171 H77         6.3080    2.1660   -3.7450 ho        1 MOL      0.400506
    172 H78         5.0790    1.2970   -3.6060 ho        1 MOL      0.400506
    173 O25         6.1850   -1.6220   -1.9150 oh        1 MOL     -0.816408
    174 H79         6.2970   -1.9000   -2.8250 ho        1 MOL      0.400506
    175 H80         5.2990   -1.9130   -1.6860 ho        1 MOL      0.400506
    176 O26         4.6980    1.3950   -0.2270 oh        1 MOL     -0.816408
    177 H81         3.9640    0.7890   -0.1300 ho        1 MOL      0.400506
    178 H82         4.2860    2.2530   -0.2940 ho        1 MOL      0.400506
    179 O27         8.2260   -0.0850   -3.4880 oh        1 MOL     -0.816408
    180 H83         8.4070   -0.9990   -3.6660 ho        1 MOL      0.400506
    181 H84         8.0960    0.3080   -4.3600 ho        1 MOL      0.400506
@<TRIPOS>BOND
     1    1    2 1   
     2    1    4 1   
     3    1    5 1   
     4    1    6 1   
     5    2    3 2   
     6    2    7 1   
     7    7    8 1   
     8    7   15 1   
     9    8    9 1   
    10    8   11 1   
    11    8   16 1   
    12    9   10 2   
    13    9   19 1   
    14   11   12 1   
    15   11   17 1   
    16   11   18 1   
    17   12   13 1   
    18   12   14 1   
    19   19   20 1   
    20   19   24 1   
    21   20   21 1   
    22   20   23 1   
    23   20   25 1   
    24   21   22 2   
    25   21   29 1   
    26   23   26 1   
    27   23   27 1   
    28   23   28 1   
    29   29   30 1   
    30   29   37 1   
    31   30   31 1   
    32   30   33 1   
    33   30   38 1   
    34   31   32 2   
    35   31   41 1   
    36   33   34 1   
    37   33   39 1   
    38   33   40 1   
    39   34   35 1   
    40   34   36 1   
    41   41   42 1   
    42   41   45 1   
    43   42   43 1   
    44   42   46 1   
    45   42   47 1   
    46   43   44 2   
    47   43   48 1   
    48   48   49 1   
    49   48   56 1   
    50   49   50 1   
    51   49   52 1   
    52   49   57 1   
    53   50   51 2   
    54   50   62 1   
    55   52   53 1   
    56   52   58 1   
    57   52   59 1   
    58   53   54 1   
    59   53   55 2   
    60   54   60 1   
    61   54   61 1   
    62   62   63 1   
    63   62   66 1   
    64   63   64 1   
    65   63   67 1   
    66   63   68 1   
    67   64   65 2   
    68   64   69 1   
    69   69   70 1   
    70   69   76 1   
    71   70   71 1   
    72   70   73 1   
    73   70   77 1   
    74   71   72 2   
    75   71   83 1   
    76   73   74 1   
    77   73   75 1   
    78   73   78 1   
    79   74   80 1   
    80   74   81 1   
    81   74   82 1   
    82   75   79 1   
    83   83   84 1   
    84   83   91 1   
    85   84   85 1   
    86   84   87 1   
    87   84   92 1   
    88   85   86 2   
    89   85  102 1   
    90   87   88 1   
    91   87   89 1   
    92   87   93 1   
    93   88   90 1   
    94   88   94 1   
    95   88   95 1   
    96   89   96 1   
    97   89   97 1   
    98   89   98 1   
    99   90   99 1   
   100   90  100 1   
   101   90  101 1   
   102  102  103 1   
   103  102  110 1   
   104  103  104 1   
   105  103  106 1   
   106  103  111 1   
   107  104  105 2   
   108  104  114 1   
   109  106  107 1   
   110  106  112 1   
   111  106  113 1   
   112  107  108 1   
   113  107  109 1   
   114  114  115 1   
   115  114  125 1   
   116  115  116 1   
   117  115  118 1   
   118  115  126 1   
   119  116  117 2   
   120  116  134 1   
   121  118  119 1   
   122  118  127 1   
   123  118  128 1   
   124  119  120 ar  
   125  119  121 ar  
   126  120  122 ar  
   127  120  129 1   
   128  121  123 ar  
   129  121  130 1   
   130  122  124 ar  
   131  122  131 1   
   132  123  124 ar  
   133  123  132 1   
   134  124  133 1   
   135  134  135 1   
   136  134  140 1   
   137  135  136 1   
   138  135  138 1   
   139  135  141 1   
   140  136  137 2   
   141  136  148 1   
   142  138  139 1   
   143  138  142 1   
   144  138  143 1   
   145  139  140 1   
   146  139  144 1   
   147  139  145 1   
   148  140  146 1   
   149  140  147 1   
   150  148  149 1   
   151  148  157 1   
   152  149  150 1   
   153  149  152 1   
   154  149  158 1   
   155  150  151 2   
   156  150  163 1   
   157  152  153 1   
   158  152  159 1   
   159  152  160 1   
   160  153  154 1   
   161  153  161 1   
   162  153  162 1   
   163  154  155 1   
   164  154  156 1   
   165  163  164 1   
   166  163  168 1   
   167  164  165 1   
   168  164  166 1   
   169  164  167 1   
   170  170  171 1   
   171  170  172 1   
   172  173  174 1   
   173  173  175 1   
   174  176  177 1   
   175  176  178 1   
   176  179  180 1   
   177  179  181 1   
@<TRIPOS>SUBSTRUCTURE
     1 MOL         1 TEMP              0 ****  ****    0 ROOT
