@<TRIPOS>MOLECULE
MOL
  192   187     1     0     0
SMALL
resp


@<TRIPOS>ATOM
      1 C1          3.0400    5.6910    2.5460 c3        1 MOL      0.033819
      2 C2          1.9980    5.2430    1.5170 c         1 MOL      0.840398
      3 O1          1.6830    4.0510    1.3280 o         1 MOL     -0.579562
      4 H1          3.8030    6.2920    2.0520 hc        1 MOL     -0.031760
      5 H2          2.5550    6.2850    3.3210 hc        1 MOL     -0.031760
      6 H3          3.5050    4.8140    2.9980 hc        1 MOL     -0.031760
      7 N1          1.5380    6.1400    0.6330 n         1 MOL     -0.666021
      8 C3          0.6480    5.9290   -0.5280 c3        1 MOL      0.145624
      9 C4         -0.8210    5.4100   -0.2620 c         1 MOL      0.398834
     10 O2         -1.7050    5.5370   -1.0940 o         1 MOL     -0.491431
     11 C5          1.3460    5.1680   -1.5990 c3        1 MOL     -0.444011
     12 C6          2.8550    5.4750   -1.8020 c         1 MOL      1.039191
     13 O3          3.6870    4.5550   -1.5830 o         1 MOL     -0.918011
     14 O4          3.3360    6.6360   -1.9230 o         1 MOL     -0.918011
     15 H4          1.8470    7.0980    0.7570 hn        1 MOL      0.283770
     16 H5          0.6000    6.9170   -0.9840 h1        1 MOL      0.103761
     17 H6          0.8520    5.2230   -2.5660 hc        1 MOL      0.135946
     18 H7          1.1660    4.1360   -1.2970 hc        1 MOL      0.135946
     19 N2         -1.1540    4.9770    0.9810 n         1 MOL     -0.063941
     20 C7         -2.4670    4.4880    1.4610 c3        1 MOL     -0.554286
     21 C8         -3.6530    5.4400    1.2250 c         1 MOL      0.547859
     22 O5         -3.4670    6.6280    1.2020 o         1 MOL     -0.542044
     23 C9         -2.4150    3.8480    2.9240 c3        1 MOL      0.261046
     24 C10        -2.1760    4.8260    4.0630 c3        1 MOL      0.360282
     25 C11        -1.4790    2.6820    2.8940 c3        1 MOL     -0.038618
     26 C12        -1.9400    4.1790    5.4480 c3        1 MOL     -0.341572
     27 H8         -0.3510    4.8360    1.5810 hn        1 MOL      0.074332
     28 H9         -2.6270    3.6330    0.8090 h1        1 MOL      0.205622
     29 H10        -3.3750    3.4050    3.1930 hc        1 MOL      0.007172
     30 H11        -3.0250    5.5070    4.1520 hc        1 MOL     -0.077177
     31 H12        -1.2370    5.3410    3.8620 hc        1 MOL     -0.077177
     32 H13        -1.6140    1.9410    3.6890 hc        1 MOL     -0.003022
     33 H14        -1.5020    2.0680    1.9980 hc        1 MOL     -0.003022
     34 H15        -0.4340    2.9870    2.9560 hc        1 MOL     -0.003022
     35 H16        -2.1690    4.9660    6.1670 hc        1 MOL      0.065305
     36 H17        -2.5840    3.3040    5.4930 hc        1 MOL      0.065305
     37 H18        -0.9200    3.8020    5.4410 hc        1 MOL      0.065305
     38 N3         -4.9130    5.0280    1.1130 n         1 MOL     -0.319026
     39 C13        -5.4890    3.6400    1.0510 c3        1 MOL     -0.033413
     40 C14        -5.2730    2.9240   -0.3020 c         1 MOL      0.382722
     41 O6         -5.0490    1.6810   -0.3240 o         1 MOL     -0.516769
     42 C15        -6.8950    3.6370    1.5010 c3        1 MOL     -0.163501
     43 C16        -7.0300    4.3820    2.8840 c         1 MOL      0.737629
     44 O7         -7.7280    5.4310    2.8880 o         1 MOL     -0.696813
     45 O8         -6.5780    3.9180    3.9410 o         1 MOL     -0.696813
     46 H19        -5.5520    5.8070    1.1250 hn        1 MOL      0.244802
     47 H20        -4.8580    3.0550    1.7170 h1        1 MOL      0.052508
     48 H21        -7.2700    2.6190    1.5830 hc        1 MOL      0.026971
     49 H22        -7.5740    4.0820    0.7820 hc        1 MOL      0.026971
     50 N4         -5.4420    3.6340   -1.4210 n         1 MOL     -0.111288
     51 C17        -5.3120    3.1930   -2.7430 c3        1 MOL     -0.339476
     52 C18        -6.4990    2.3530   -3.2130 c         1 MOL      0.562344
     53 O9         -7.5640    2.8780   -3.4570 o         1 MOL     -0.565164
     54 H23        -5.5660    4.6350   -1.2830 hn        1 MOL      0.241495
     55 H24        -4.4300    2.5510   -2.7680 h1        1 MOL      0.125320
     56 H25        -5.2270    4.0120   -3.4450 h1        1 MOL      0.125320
     57 N5         -6.2880    1.0440   -3.3290 n         1 MOL     -0.401653
     58 C19        -7.2560   -0.0180   -3.5350 c3        1 MOL      0.112462
     59 C20        -7.8860   -0.5370   -2.2490 c         1 MOL      0.414309
     60 O10        -8.9350   -1.1650   -2.3040 o         1 MOL     -0.549654
     61 C21        -6.6460   -1.2240   -4.2940 c3        1 MOL     -0.318465
     62 C22        -5.1960   -1.5590   -3.7850 c         1 MOL      0.697303
     63 O11        -4.9130   -1.5280   -2.5570 o         1 MOL     -0.681640
     64 O12        -4.2900   -1.7720   -4.6280 o         1 MOL     -0.681640
     65 H26        -5.3260    0.7520   -3.2210 hn        1 MOL      0.289857
     66 H27        -8.0830    0.3770   -4.1250 h1        1 MOL      0.072597
     67 H28        -6.4590   -0.9420   -5.3340 hc        1 MOL      0.064699
     68 H29        -7.2790   -2.1100   -4.3280 hc        1 MOL      0.064699
     69 N6         -7.3510   -0.1780   -1.0730 n         1 MOL     -0.238042
     70 C23        -7.8040   -0.7370    0.2810 c3        1 MOL     -0.151293
     71 C24        -7.4170   -2.2300    0.4460 c         1 MOL      0.426928
     72 O13        -7.8700   -2.8500    1.4260 o         1 MOL     -0.540843
     73 H30        -6.4940    0.3380   -0.9710 hn        1 MOL      0.240140
     74 H31        -8.8530   -0.5520    0.4790 h1        1 MOL      0.114520
     75 H32        -7.3040   -0.1920    1.0890 h1        1 MOL      0.114520
     76 N7         -6.5110   -2.7420   -0.4790 n         1 MOL     -0.038612
     77 C25        -5.9180   -4.1170   -0.3990 c3        1 MOL     -0.058644
     78 C26        -5.0740   -4.2460    0.8170 c         1 MOL      0.496968
     79 O14        -4.8320   -5.3580    1.2240 o         1 MOL     -0.516308
     80 C27        -7.0900   -5.1280   -0.5640 c3        1 MOL     -0.019347
     81 C28        -7.9990   -4.9170   -1.8010 c3        1 MOL      0.008640
     82 C29        -9.1440   -5.8780   -2.0090 c         1 MOL      0.583644
     83 N8         -9.9790   -5.6110   -3.0160 n         1 MOL     -0.757676
     84 O15        -9.3040   -6.9330   -1.3560 o         1 MOL     -0.575085
     85 H33        -6.0990   -2.1470   -1.1870 hn        1 MOL      0.065104
     86 H34        -5.2600   -4.2540   -1.2620 h1        1 MOL      0.107034
     87 H35        -7.6970   -5.1030    0.3370 hc        1 MOL      0.021238
     88 H36        -6.7030   -6.1430   -0.6470 hc        1 MOL      0.021238
     89 H37        -7.3280   -5.0580   -2.6430 hc        1 MOL      0.018125
     90 H38        -8.3280   -3.8740   -1.8560 hc        1 MOL      0.018125
     91 H39        -9.9410   -4.7920   -3.6120 hn        1 MOL      0.334437
     92 H40       -10.4530   -6.4490   -3.3300 hn        1 MOL      0.334437
     93 N9         -4.5510   -3.1470    1.3960 n         1 MOL     -0.419777
     94 C30        -3.8100   -3.1130    2.7110 c3        1 MOL     -0.007640
     95 C31        -2.3520   -2.9220    2.3820 c         1 MOL      0.503468
     96 O16        -1.4520   -3.4840    3.1060 o         1 MOL     -0.576675
     97 C32        -4.3680   -2.0650    3.6840 c3        1 MOL      0.445210
     98 C33        -4.1760   -0.6040    3.2370 c3        1 MOL     -0.419602
     99 C34        -5.8000   -2.4690    4.2010 c3        1 MOL     -0.419602
    100 H41        -4.8020   -2.2350    1.0210 hn        1 MOL      0.235867
    101 H42        -3.9320   -4.0570    3.2350 h1        1 MOL      0.083334
    102 H43        -3.7780   -2.2900    4.5750 hc        1 MOL     -0.087155
    103 H44        -4.9300   -0.2930    2.5020 hc        1 MOL      0.098615
    104 H45        -4.2520    0.0380    4.1140 hc        1 MOL      0.098615
    105 H46        -3.2080   -0.4820    2.7580 hc        1 MOL      0.098615
    106 H47        -6.5100   -1.8440    3.6700 hc        1 MOL      0.098615
    107 H48        -5.9060   -3.5450    4.0970 hc        1 MOL      0.098615
    108 H49        -5.8470   -2.1560    5.2450 hc        1 MOL      0.098615
    109 N10        -1.9640   -2.2900    1.3080 n         1 MOL     -0.395049
    110 C35        -0.6100   -1.8290    1.1830 c3        1 MOL      0.210131
    111 C36         0.2780   -2.9510    0.6120 c         1 MOL      0.617946
    112 O17        -0.1940   -3.9410    0.1530 o         1 MOL     -0.551549
    113 C37        -0.5650   -0.6130    0.2950 c3        1 MOL     -0.258887
    114 C38         0.6110    0.3040    0.5390 c         1 MOL      0.816970
    115 N11         0.5650    1.3950   -0.0980 n         1 MOL     -0.929818
    116 O18         1.5030   -0.0300    1.3660 o         1 MOL     -0.592148
    117 H50        -2.6520   -2.0450    0.6210 hn        1 MOL      0.250612
    118 H51        -0.1980   -1.5800    2.1620 h1        1 MOL      0.019136
    119 H52        -1.4940   -0.0560    0.4190 hc        1 MOL      0.061639
    120 H53        -0.5270   -0.8700   -0.7530 hc        1 MOL      0.061639
    121 H54        -0.2150    1.6840   -0.6710 hn        1 MOL      0.411239
    122 H55         1.3690    2.0000   -0.1470 hn        1 MOL      0.411239
    123 N12         1.5430   -2.6650    0.5480 n         1 MOL     -0.542561
    124 C39         2.5690   -3.4620   -0.0890 c3        1 MOL      0.244052
    125 C40         3.9150   -3.2520    0.6730 c         1 MOL      0.456184
    126 O19         4.0590   -2.2610    1.3500 o         1 MOL     -0.530225
    127 C41         2.6460   -3.0170   -1.5510 c3        1 MOL     -0.257524
    128 C42         3.6950   -3.7620   -2.4170 ca        1 MOL      0.143573
    129 C43         5.0450   -3.2100   -2.5570 ca        1 MOL     -0.226245
    130 C44         3.2860   -4.8580   -3.2110 ca        1 MOL     -0.226245
    131 C45         5.9530   -3.8180   -3.4170 ca        1 MOL     -0.254434
    132 C46         4.3180   -5.6270   -3.8510 ca        1 MOL     -0.254434
    133 C47         5.5680   -5.0560   -4.0300 ca        1 MOL      0.363807
    134 O20         6.5140   -5.6870   -4.7850 oh        1 MOL     -0.561781
    135 H56         1.8130   -1.8180    1.0290 hn        1 MOL      0.288312
    136 H57         2.2520   -4.5040   -0.0550 h1        1 MOL      0.020961
    137 H58         2.8620   -1.9550   -1.4750 hc        1 MOL      0.086454
    138 H59         1.6840   -3.0460   -2.0680 hc        1 MOL      0.086454
    139 H60         5.4140   -2.3770   -1.9650 ha        1 MOL      0.164626
    140 H61         2.2820   -5.2530   -3.2120 ha        1 MOL      0.164626
    141 H62         6.9410   -3.3880   -3.5020 ha        1 MOL      0.150146
    142 H63         4.0810   -6.5940   -4.2830 ha        1 MOL      0.150146
    143 H64         7.3300   -5.1910   -4.7840 ho        1 MOL      0.386473
    144 N13         4.8640   -4.1830    0.6930 n         1 MOL     -0.342617
    145 C48         6.2750   -4.0610    1.1610 c3        1 MOL     -0.042638
    146 C49         7.2900   -4.2580    0.0890 c         1 MOL      0.655487
    147 O21         7.2520   -5.2590   -0.6510 o         1 MOL     -0.543152
    148 C50         6.5320   -5.2170    2.1570 c3        1 MOL     -0.061392
    149 C51         5.6060   -5.0670    3.3940 c3        1 MOL     -0.116923
    150 C52         5.8490   -6.2510    4.3290 c         1 MOL      0.687243
    151 O22         6.0010   -7.3980    3.8710 o         1 MOL     -0.648476
    152 O23         5.8460   -6.0540    5.5850 o         1 MOL     -0.648476
    153 H65         4.5710   -4.9270    0.0770 hn        1 MOL      0.248870
    154 H66         6.4450   -3.1710    1.7730 h1        1 MOL      0.150811
    155 H67         7.5780   -5.2690    2.4620 hc        1 MOL      0.038620
    156 H68         6.1810   -6.1580    1.7360 hc        1 MOL      0.038620
    157 H69         4.5400   -5.0130    3.1760 hc        1 MOL      0.030505
    158 H70         5.8580   -4.1360    3.8990 hc        1 MOL      0.030505
    159 N14         8.3440   -3.4040   -0.1190 n         1 MOL     -0.692614
    160 C53         8.3280   -1.9120    0.0500 c3        1 MOL      0.140063
    161 C54         8.2310   -1.4360    1.5010 c         1 MOL      0.606948
    162 O24         8.8770   -1.9970    2.3850 o         1 MOL     -0.551738
    163 C55         9.5700   -1.2690   -0.6430 c3        1 MOL     -0.037428
    164 C56         9.6450    0.2700   -0.7390 c3        1 MOL     -0.277397
    165 C57         8.4230    0.8460   -1.4890 c         1 MOL      0.583431
    166 O25         7.8470    0.1600   -2.4120 o         1 MOL     -0.577518
    167 O26         8.0030    1.9730   -1.1550 o         1 MOL     -0.577518
    168 H71         8.9960   -3.6620   -0.8420 hn        1 MOL      0.328905
    169 H72         7.4100   -1.5430   -0.4060 h1        1 MOL     -0.031608
    170 H73         9.5830   -1.6710   -1.6610 hc        1 MOL      0.036875
    171 H74        10.4550   -1.5930   -0.0870 hc        1 MOL      0.036875
    172 H75        10.5560    0.4110   -1.3200 hc        1 MOL      0.049883
    173 H76         9.6840    0.5530    0.3120 hc        1 MOL      0.049883
    174 N15         7.4440   -0.3510    1.7190 n         1 MOL     -0.338119
    175 C58         7.1640    0.2510    3.0040 c3        1 MOL     -0.282142
    176 H77         6.2790   -0.2150    3.4380 h1        1 MOL      0.119350
    177 H78         8.0140    0.1030    3.6680 h1        1 MOL      0.119350
    178 H79         6.9850    1.3190    2.8750 h1        1 MOL      0.119350
    179 H80         6.9890    0.1170    0.9490 hn        1 MOL      0.285191
    180 Ca1         5.8380    5.9090   -1.8170 Ca        1 MOL      1.618396
    181 O27         6.5660    4.0500    0.0530 oh        1 MOL     -0.832393
    182 H81         7.0260    3.2240   -0.0480 ho        1 MOL      0.385042
    183 H82         5.8500    3.8530    0.6580 ho        1 MOL      0.385042
    184 O28         7.0270    6.7600   -4.1280 oh        1 MOL     -0.832393
    185 H83         7.0410    6.6270   -5.0770 ho        1 MOL      0.385042
    186 H84         7.4980    7.5840   -3.9980 ho        1 MOL      0.385042
    187 O29         8.4350    6.3850   -0.8660 oh        1 MOL     -0.832393
    188 H85         8.7540    5.7060   -0.2680 ho        1 MOL      0.385042
    189 H86         9.1830    6.9710   -0.9710 ho        1 MOL      0.385042
    190 O30         7.1950    3.8660   -2.9750 oh        1 MOL     -0.832393
    191 H87         6.5710    3.2710   -3.3920 ho        1 MOL      0.385042
    192 H88         7.6990    3.3070   -2.3880 ho        1 MOL      0.385042
@<TRIPOS>BOND
     1    1    2 1   
     2    1    4 1   
     3    1    5 1   
     4    1    6 1   
     5    2    3 2   
     6    2    7 1   
     7    7    8 1   
     8    7   15 1   
     9    8    9 1   
    10    8   11 1   
    11    8   16 1   
    12    9   10 2   
    13    9   19 1   
    14   11   12 1   
    15   11   17 1   
    16   11   18 1   
    17   12   13 1   
    18   12   14 1   
    19   19   20 1   
    20   19   27 1   
    21   20   21 1   
    22   20   23 1   
    23   20   28 1   
    24   21   22 2   
    25   21   38 1   
    26   23   24 1   
    27   23   25 1   
    28   23   29 1   
    29   24   26 1   
    30   24   30 1   
    31   24   31 1   
    32   25   32 1   
    33   25   33 1   
    34   25   34 1   
    35   26   35 1   
    36   26   36 1   
    37   26   37 1   
    38   38   39 1   
    39   38   46 1   
    40   39   40 1   
    41   39   42 1   
    42   39   47 1   
    43   40   41 2   
    44   40   50 1   
    45   42   43 1   
    46   42   48 1   
    47   42   49 1   
    48   43   44 1   
    49   43   45 1   
    50   50   51 1   
    51   50   54 1   
    52   51   52 1   
    53   51   55 1   
    54   51   56 1   
    55   52   53 2   
    56   52   57 1   
    57   57   58 1   
    58   57   65 1   
    59   58   59 1   
    60   58   61 1   
    61   58   66 1   
    62   59   60 2   
    63   59   69 1   
    64   61   62 1   
    65   61   67 1   
    66   61   68 1   
    67   62   63 1   
    68   62   64 1   
    69   69   70 1   
    70   69   73 1   
    71   70   71 1   
    72   70   74 1   
    73   70   75 1   
    74   71   72 2   
    75   71   76 1   
    76   76   77 1   
    77   76   85 1   
    78   77   78 1   
    79   77   80 1   
    80   77   86 1   
    81   78   79 2   
    82   78   93 1   
    83   80   81 1   
    84   80   87 1   
    85   80   88 1   
    86   81   82 1   
    87   81   89 1   
    88   81   90 1   
    89   82   83 1   
    90   82   84 2   
    91   83   91 1   
    92   83   92 1   
    93   93   94 1   
    94   93  100 1   
    95   94   95 1   
    96   94   97 1   
    97   94  101 1   
    98   95   96 2   
    99   95  109 1   
   100   97   98 1   
   101   97   99 1   
   102   97  102 1   
   103   98  103 1   
   104   98  104 1   
   105   98  105 1   
   106   99  106 1   
   107   99  107 1   
   108   99  108 1   
   109  109  110 1   
   110  109  117 1   
   111  110  111 1   
   112  110  113 1   
   113  110  118 1   
   114  111  112 2   
   115  111  123 1   
   116  113  114 1   
   117  113  119 1   
   118  113  120 1   
   119  114  115 1   
   120  114  116 2   
   121  115  121 1   
   122  115  122 1   
   123  123  124 1   
   124  123  135 1   
   125  124  125 1   
   126  124  127 1   
   127  124  136 1   
   128  125  126 2   
   129  125  144 1   
   130  127  128 1   
   131  127  137 1   
   132  127  138 1   
   133  128  129 ar  
   134  128  130 ar  
   135  129  131 ar  
   136  129  139 1   
   137  130  132 ar  
   138  130  140 1   
   139  131  133 ar  
   140  131  141 1   
   141  132  133 ar  
   142  132  142 1   
   143  133  134 1   
   144  134  143 1   
   145  144  145 1   
   146  144  153 1   
   147  145  146 1   
   148  145  148 1   
   149  145  154 1   
   150  146  147 2   
   151  146  159 1   
   152  148  149 1   
   153  148  155 1   
   154  148  156 1   
   155  149  150 1   
   156  149  157 1   
   157  149  158 1   
   158  150  151 1   
   159  150  152 1   
   160  159  160 1   
   161  159  168 1   
   162  160  161 1   
   163  160  163 1   
   164  160  169 1   
   165  161  162 2   
   166  161  174 1   
   167  163  164 1   
   168  163  170 1   
   169  163  171 1   
   170  164  165 1   
   171  164  172 1   
   172  164  173 1   
   173  165  166 1   
   174  165  167 1   
   175  174  175 1   
   176  174  179 1   
   177  175  176 1   
   178  175  177 1   
   179  175  178 1   
   180  181  182 1   
   181  181  183 1   
   182  184  185 1   
   183  184  186 1   
   184  187  188 1   
   185  187  189 1   
   186  190  191 1   
   187  190  192 1   
@<TRIPOS>SUBSTRUCTURE
     1 MOL         1 TEMP              0 ****  ****    0 ROOT
