@<TRIPOS>MOLECULE
MOL
  188   182     1     0     0
SMALL
resp


@<TRIPOS>ATOM
      1 C1         -7.1650    3.4070   -1.9390 c3        1 MOL     -0.046412
      2 C2         -7.2090    2.2120   -0.8520 c         1 MOL      0.614751
      3 O1         -6.3500    1.3110   -0.8540 o         1 MOL     -0.618323
      4 H1         -6.1780    3.4430   -2.3990 hc        1 MOL      0.004567
      5 H2         -7.9170    3.2280   -2.7080 hc        1 MOL      0.004567
      6 H3         -7.3700    4.3570   -1.4440 hc        1 MOL      0.004567
      7 N1         -8.2300    2.1840   -0.0360 n         1 MOL     -0.618519
      8 C3         -8.3100    1.5170    1.2910 c3        1 MOL      0.444596
      9 C4         -8.3570   -0.0500    1.1900 c         1 MOL      0.322017
     10 O2         -8.4180   -0.6720    2.2820 o         1 MOL     -0.432387
     11 C5         -7.2840    2.0950    2.2770 c3        1 MOL     -0.661188
     12 C6         -7.4680    1.7050    3.7560 c         1 MOL      0.807487
     13 O3         -6.4660    1.3360    4.3630 o         1 MOL     -0.652151
     14 O4         -8.5790    1.7490    4.3280 o         1 MOL     -0.652151
     15 H4         -8.9480    2.8640   -0.2140 hn        1 MOL      0.303820
     16 H5         -9.3190    1.6940    1.6600 h1        1 MOL      0.008303
     17 H6         -7.3070    3.1890    2.2020 hc        1 MOL      0.200201
     18 H7         -6.2820    1.8310    1.9270 hc        1 MOL      0.200201
     19 N2         -8.5090   -0.5940   -0.0340 n         1 MOL     -0.370926
     20 C7         -8.5000   -1.9880   -0.3320 c3        1 MOL      0.184613
     21 C8         -7.1490   -2.5930   -0.4190 c         1 MOL      0.441361
     22 O5         -7.0110   -3.7960   -0.4050 o         1 MOL     -0.538622
     23 C9         -9.3430   -2.3580   -1.6230 c3        1 MOL     -0.091077
     24 C10        -9.0760   -1.3480   -2.7540 c3        1 MOL      0.043116
     25 C11        -9.8910   -1.7250   -3.9800 c3        1 MOL      0.228122
     26 C12        -9.6570   -0.9390   -5.2450 c3        1 MOL     -0.330020
     27 N3        -10.2870    0.4050   -5.1830 n4        1 MOL     -0.135018
     28 H8         -8.4770    0.0730   -0.7850 hn        1 MOL      0.156183
     29 H9         -9.0100   -2.5510    0.4570 h1        1 MOL      0.088637
     30 H10       -10.3890   -2.2920   -1.3090 hc        1 MOL      0.030221
     31 H11        -9.1460   -3.3960   -1.8960 hc        1 MOL      0.030221
     32 H12        -8.0390   -1.3990   -3.0830 hc        1 MOL     -0.020809
     33 H13        -9.2950   -0.3030   -2.5700 hc        1 MOL     -0.020809
     34 H14       -10.9020   -1.4230   -3.7030 hc        1 MOL     -0.021053
     35 H15        -9.8970   -2.7870   -4.2260 hc        1 MOL     -0.021053
     36 H16       -10.2180   -1.5670   -5.9410 hx        1 MOL      0.174184
     37 H17        -8.5750   -1.0160   -5.3670 hx        1 MOL      0.174184
     38 H18       -11.2650    0.4700   -4.9580 hn        1 MOL      0.200914
     39 H19        -9.8350    0.9590   -4.4630 hn        1 MOL      0.200914
     40 H20       -10.1840    0.8910   -6.0690 hn        1 MOL      0.200914
     41 N4         -6.1080   -1.7800   -0.4530 n         1 MOL     -0.214060
     42 C13        -4.7350   -2.3210   -0.6820 c3        1 MOL     -0.253393
     43 C14        -4.1990   -3.1260    0.5400 c         1 MOL      0.569713
     44 O6         -4.5550   -2.8720    1.6810 o         1 MOL     -0.430325
     45 C15        -3.7030   -1.1520   -0.8890 c3        1 MOL     -0.014142
     46 C16        -2.3430   -1.7520   -1.1750 c         1 MOL      0.352952
     47 O7         -2.1360   -2.3420   -2.2810 o         1 MOL     -0.593098
     48 O8         -1.4890   -1.7050   -0.2390 o         1 MOL     -0.593098
     49 H21        -6.2170   -0.7790   -0.3850 hn        1 MOL      0.219315
     50 H22        -4.6880   -2.9680   -1.5650 h1        1 MOL      0.116432
     51 H23        -3.6400   -0.4280   -0.0630 hc        1 MOL      0.062291
     52 H24        -4.0120   -0.4680   -1.6740 hc        1 MOL      0.062291
     53 N5         -3.3290   -4.1670    0.3920 n         1 MOL     -0.311270
     54 C17        -2.7190   -5.0590    1.3540 c3        1 MOL     -0.351514
     55 C18        -1.8410   -4.3640    2.4150 c         1 MOL      0.571406
     56 O9         -1.6490   -4.8480    3.5090 o         1 MOL     -0.532425
     57 H25        -3.0460   -4.2930   -0.5650 hn        1 MOL      0.262448
     58 H26        -2.2080   -5.8790    0.8450 h1        1 MOL      0.167318
     59 H27        -3.5240   -5.4070    2.0100 h1        1 MOL      0.167318
     60 N6         -1.2530   -3.2220    2.0730 n         1 MOL     -0.377808
     61 C19        -0.6840   -2.2590    3.0770 c3        1 MOL     -0.044994
     62 C20        -1.6200   -1.0730    3.5660 c         1 MOL      0.517670
     63 O10        -1.1500   -0.2010    4.3120 o         1 MOL     -0.551495
     64 C21         0.5810   -1.5990    2.4170 c3        1 MOL     -0.053006
     65 C22         1.4670   -2.6200    1.7870 c         1 MOL      0.744486
     66 N7          2.3680   -3.0980    2.5920 n         1 MOL     -0.733143
     67 O11         1.4570   -2.8440    0.6140 o         1 MOL     -0.689077
     68 H28        -1.4570   -2.9130    1.1270 hn        1 MOL      0.250002
     69 H29        -0.4150   -2.7930    3.9880 h1        1 MOL      0.101752
     70 H30         1.1920   -1.1010    3.1670 hc        1 MOL     -0.030017
     71 H31         0.3370   -0.8910    1.6180 hc        1 MOL     -0.030017
     72 H32         2.4740   -2.8930    3.5740 hn        1 MOL      0.356156
     73 H33         2.9980   -3.7870    2.2030 hn        1 MOL      0.356156
     74 N8         -2.7600   -1.0330    2.9600 n         1 MOL     -0.225371
     75 C23        -3.6780    0.1050    3.0000 c3        1 MOL     -0.121145
     76 C24        -3.1480    1.3350    2.2000 c         1 MOL      0.507410
     77 O12        -3.7550    2.4430    2.3130 o         1 MOL     -0.522840
     78 H34        -2.9150   -1.7740    2.2800 hn        1 MOL      0.165707
     79 H35        -3.6760    0.4470    4.0370 h1        1 MOL      0.157077
     80 H36        -4.6930   -0.0500    2.6330 h1        1 MOL      0.157077
     81 N9         -2.1140    1.2030    1.3200 n         1 MOL     -0.462833
     82 C25        -1.4740    2.3120    0.5670 c3        1 MOL      0.002178
     83 C26        -0.0440    1.7950    0.0960 c         1 MOL      0.436678
     84 O13         0.1910    0.6270   -0.1310 o         1 MOL     -0.525735
     85 C27        -2.3910    2.5920   -0.6990 c3        1 MOL     -0.037922
     86 C28        -2.1130    3.8640   -1.5340 ca        1 MOL     -0.033875
     87 C29        -1.7330    5.0680   -0.9300 ca        1 MOL     -0.073388
     88 C30        -2.2170    3.8090   -2.9430 ca        1 MOL     -0.073388
     89 C31        -1.2780    6.1480   -1.6850 ca        1 MOL     -0.267682
     90 C32        -1.8370    4.8480   -3.7620 ca        1 MOL     -0.267682
     91 C33        -1.3500    6.0090   -3.1420 ca        1 MOL      0.306773
     92 O14        -0.9880    7.0990   -3.9060 oh        1 MOL     -0.467505
     93 H37        -1.7310    0.2640    1.2670 hn        1 MOL      0.272845
     94 H38        -1.5340    3.1610    1.2420 h1        1 MOL      0.118670
     95 H39        -3.4320    2.6210   -0.3750 hc        1 MOL      0.061788
     96 H40        -2.3230    1.7100   -1.3430 hc        1 MOL      0.061788
     97 H41        -1.6570    5.1730    0.1410 ha        1 MOL      0.099436
     98 H42        -2.5870    2.9260   -3.4510 ha        1 MOL      0.099436
     99 H43        -0.9760    7.0720   -1.2180 ha        1 MOL      0.153049
    100 H44        -1.9910    4.7520   -4.8270 ha        1 MOL      0.153049
    101 H45        -0.7950    6.8880   -4.8260 ho        1 MOL      0.351982
    102 N10         0.9930    2.6080    0.3930 n         1 MOL     -0.177766
    103 C34         2.4090    2.3600   -0.0350 c3        1 MOL      0.127424
    104 C35         3.0900    1.4000    0.9810 c         1 MOL      0.289341
    105 O15         3.9420    0.6150    0.5990 o         1 MOL     -0.549577
    106 C36         3.1250    3.6980   -0.3050 c3        1 MOL     -0.007840
    107 C37         2.4510    4.7500   -1.1300 c3        1 MOL     -0.135414
    108 C38         4.6040    3.4670   -0.7600 c3        1 MOL     -0.492842
    109 C39         1.9200    4.3710   -2.5070 c3        1 MOL     -0.301863
    110 H46         0.6910    3.4710    0.8340 hn        1 MOL      0.194149
    111 H47         2.5240    1.9080   -1.0240 h1        1 MOL      0.121408
    112 H48         3.1530    4.1710    0.6760 hc        1 MOL     -0.018767
    113 H49         3.2450    5.4770   -1.2940 hc        1 MOL      0.107308
    114 H50         1.5360    5.0960   -0.6420 hc        1 MOL      0.107308
    115 H51         5.1220    2.7340   -0.1470 hc        1 MOL      0.148309
    116 H52         4.6210    3.2070   -1.8220 hc        1 MOL      0.148309
    117 H53         5.1570    4.4080   -0.7120 hc        1 MOL      0.148309
    118 H54         1.7360    5.2710   -3.1030 hc        1 MOL      0.074740
    119 H55         2.7120    3.8380   -3.0330 hc        1 MOL      0.074740
    120 H56         1.0110    3.7760   -2.3960 hc        1 MOL      0.074740
    121 N11         2.6640    1.3980    2.2640 n         1 MOL      0.112987
    122 C40         3.2720    0.6830    3.3680 c3        1 MOL     -0.287777
    123 C41         4.7910    1.0500    3.5650 c         1 MOL      0.545755
    124 O16         5.4690    0.2860    4.2580 o         1 MOL     -0.508872
    125 C42         2.5410    1.0000    4.6970 c3        1 MOL      0.133273
    126 O17         2.2000    2.4160    4.7610 oh        1 MOL     -0.613005
    127 H57         2.0090    2.1390    2.4790 hn        1 MOL      0.095722
    128 H58         3.3600   -0.3710    3.1150 h1        1 MOL      0.128042
    129 H59         3.0600    0.7350    5.6170 h1        1 MOL      0.080378
    130 H60         1.6380    0.4130    4.6000 h1        1 MOL      0.080378
    131 H61         1.8890    2.5550    5.6650 ho        1 MOL      0.429148
    132 N12         5.2880    2.1880    3.0010 n         1 MOL     -0.408619
    133 C43         6.7490    2.4630    2.8270 c3        1 MOL      0.210854
    134 C44         7.5410    1.2770    2.1780 c         1 MOL      0.370496
    135 O18         8.7190    1.1280    2.4740 o         1 MOL     -0.502688
    136 C45         7.2360    3.0820    4.1600 c3        1 MOL     -0.407019
    137 H62         4.6090    2.7700    2.5380 hn        1 MOL      0.238731
    138 H63         6.7580    3.1700    1.9870 h1        1 MOL      0.050172
    139 H64         7.3910    2.3360    4.9340 hc        1 MOL      0.122386
    140 H65         8.1710    3.6440    4.0630 hc        1 MOL      0.122386
    141 H66         6.4380    3.7780    4.4420 hc        1 MOL      0.122386
    142 N13         6.7880    0.3870    1.5540 n         1 MOL     -0.184453
    143 C46         7.3860   -0.7680    0.9690 c3        1 MOL      0.066766
    144 C47         7.9350   -0.4570   -0.4150 c         1 MOL      0.549348
    145 O19         7.4190    0.4690   -1.0900 o         1 MOL     -0.524383
    146 C48         6.3840   -1.8350    0.9440 c3        1 MOL     -0.044006
    147 H67         5.7990    0.5060    1.4710 hn        1 MOL      0.172955
    148 H68         8.2290   -1.0930    1.5750 h1        1 MOL      0.044279
    149 H69         5.9120   -2.0140    1.9140 hc        1 MOL      0.010171
    150 H70         5.5670   -1.6330    0.2470 hc        1 MOL      0.010171
    151 H71         6.8480   -2.7790    0.6540 hc        1 MOL      0.010171
    152 N14         8.9830   -1.1270   -0.8050 n         1 MOL     -0.507903
    153 C49         9.5810   -1.0450   -2.1110 c3        1 MOL      0.089716
    154 C50         9.8880    0.3650   -2.6280 c         1 MOL      0.375618
    155 O20         9.7290    0.6290   -3.8440 o         1 MOL     -0.517691
    156 C51         8.8760   -1.8790   -3.1180 c3        1 MOL     -0.137164
    157 C52         8.7110   -3.3830   -2.6560 c3        1 MOL      0.079354
    158 C53        10.0000   -4.1110   -2.2000 c         1 MOL      0.683803
    159 O21         9.9950   -4.9770   -1.2670 o         1 MOL     -0.667699
    160 O22        11.0430   -3.7320   -2.7620 o         1 MOL     -0.667699
    161 H72         9.4060   -1.8160   -0.2020 hn        1 MOL      0.322092
    162 H73        10.5460   -1.5350   -1.9790 h1        1 MOL      0.076613
    163 H74         9.5210   -2.0660   -3.9730 hc        1 MOL      0.060515
    164 H75         7.9230   -1.4100   -3.3810 hc        1 MOL      0.060515
    165 H76         8.3240   -3.9040   -3.5200 hc        1 MOL     -0.091708
    166 H77         8.0030   -3.3860   -1.8170 hc        1 MOL     -0.091708
    167 N15        10.2540    1.3630   -1.7980 n         1 MOL     -0.205287
    168 C54        10.3710    2.7490   -2.2250 c3        1 MOL     -0.206387
    169 H78        11.2730    2.8680   -2.8270 h1        1 MOL      0.099332
    170 H79         9.5000    3.0220   -2.8200 h1        1 MOL      0.099332
    171 H80        10.4320    3.3970   -1.3510 h1        1 MOL      0.099332
    172 H81        10.3010    1.0450   -0.8350 hn        1 MOL      0.194979
    173 Ca1         0.4750   -2.0330   -1.8290 Ca        1 MOL      1.833681
    174 O23         2.5000   -3.6580   -2.4210 oh        1 MOL     -0.894325
    175 H82         3.3960   -3.3840   -2.2420 ho        1 MOL      0.439330
    176 H83         2.5940   -4.3870   -3.0370 ho        1 MOL      0.439330
    177 O24        -0.3990   -4.5180   -1.4520 oh        1 MOL     -0.894325
    178 H84        -0.2600   -5.0320   -0.6560 ho        1 MOL      0.439330
    179 H85        -0.5560   -5.1700   -2.1360 ho        1 MOL      0.439330
    180 O25         0.2590   -3.0550   -4.3530 oh        1 MOL     -0.894325
    181 H86         0.2340   -4.0170   -4.3640 ho        1 MOL      0.439330
    182 H87         0.5810   -2.8260   -5.2250 ho        1 MOL      0.439330
    183 O26         0.5210    0.1000   -3.6410 oh        1 MOL     -0.894325
    184 H88        -0.0470   -0.1240   -4.3760 ho        1 MOL      0.439330
    185 H89         1.1210    0.7680   -3.9890 ho        1 MOL      0.439330
    186 O27         2.9390   -0.9220   -1.6210 oh        1 MOL     -0.894325
    187 H90         3.6410   -0.7170   -2.2430 ho        1 MOL      0.439330
    188 H91         3.3800   -0.9590   -0.7700 ho        1 MOL      0.439330
@<TRIPOS>BOND
     1    1    2 1   
     2    1    4 1   
     3    1    5 1   
     4    1    6 1   
     5    2    3 2   
     6    2    7 1   
     7    7    8 1   
     8    7   15 1   
     9    8    9 1   
    10    8   11 1   
    11    8   16 1   
    12    9   10 2   
    13    9   19 1   
    14   11   12 1   
    15   11   17 1   
    16   11   18 1   
    17   12   13 1   
    18   12   14 1   
    19   19   20 1   
    20   19   28 1   
    21   20   21 1   
    22   20   23 1   
    23   20   29 1   
    24   21   22 2   
    25   21   41 1   
    26   23   24 1   
    27   23   30 1   
    28   23   31 1   
    29   24   25 1   
    30   24   32 1   
    31   24   33 1   
    32   25   26 1   
    33   25   34 1   
    34   25   35 1   
    35   26   27 1   
    36   26   36 1   
    37   26   37 1   
    38   27   38 1   
    39   27   39 1   
    40   27   40 1   
    41   41   42 1   
    42   41   49 1   
    43   42   43 1   
    44   42   45 1   
    45   42   50 1   
    46   43   44 2   
    47   43   53 1   
    48   45   46 1   
    49   45   51 1   
    50   45   52 1   
    51   46   47 1   
    52   46   48 1   
    53   53   54 1   
    54   53   57 1   
    55   54   55 1   
    56   54   58 1   
    57   54   59 1   
    58   55   56 2   
    59   55   60 1   
    60   60   61 1   
    61   60   68 1   
    62   61   62 1   
    63   61   64 1   
    64   61   69 1   
    65   62   63 2   
    66   62   74 1   
    67   64   65 1   
    68   64   70 1   
    69   64   71 1   
    70   65   66 1   
    71   65   67 2   
    72   66   72 1   
    73   66   73 1   
    74   74   75 1   
    75   74   78 1   
    76   75   76 1   
    77   75   79 1   
    78   75   80 1   
    79   76   77 2   
    80   76   81 1   
    81   81   82 1   
    82   81   93 1   
    83   82   83 1   
    84   82   85 1   
    85   82   94 1   
    86   83   84 2   
    87   83  102 1   
    88   85   86 1   
    89   85   95 1   
    90   85   96 1   
    91   86   87 ar  
    92   86   88 ar  
    93   87   89 ar  
    94   87   97 1   
    95   88   90 ar  
    96   88   98 1   
    97   89   91 ar  
    98   89   99 1   
    99   90   91 ar  
   100   90  100 1   
   101   91   92 1   
   102   92  101 1   
   103  102  103 1   
   104  102  110 1   
   105  103  104 1   
   106  103  106 1   
   107  103  111 1   
   108  104  105 2   
   109  104  121 1   
   110  106  107 1   
   111  106  108 1   
   112  106  112 1   
   113  107  109 1   
   114  107  113 1   
   115  107  114 1   
   116  108  115 1   
   117  108  116 1   
   118  108  117 1   
   119  109  118 1   
   120  109  119 1   
   121  109  120 1   
   122  121  122 1   
   123  121  127 1   
   124  122  123 1   
   125  122  125 1   
   126  122  128 1   
   127  123  124 2   
   128  123  132 1   
   129  125  126 1   
   130  125  129 1   
   131  125  130 1   
   132  126  131 1   
   133  132  133 1   
   134  132  137 1   
   135  133  134 1   
   136  133  136 1   
   137  133  138 1   
   138  134  135 2   
   139  134  142 1   
   140  136  139 1   
   141  136  140 1   
   142  136  141 1   
   143  142  143 1   
   144  142  147 1   
   145  143  144 1   
   146  143  146 1   
   147  143  148 1   
   148  144  145 2   
   149  144  152 1   
   150  146  149 1   
   151  146  150 1   
   152  146  151 1   
   153  152  153 1   
   154  152  161 1   
   155  153  154 1   
   156  153  156 1   
   157  153  162 1   
   158  154  155 2   
   159  154  167 1   
   160  156  157 1   
   161  156  163 1   
   162  156  164 1   
   163  157  158 1   
   164  157  165 1   
   165  157  166 1   
   166  158  159 1   
   167  158  160 1   
   168  167  168 1   
   169  167  172 1   
   170  168  169 1   
   171  168  170 1   
   172  168  171 1   
   173  174  175 1   
   174  174  176 1   
   175  177  178 1   
   176  177  179 1   
   177  180  181 1   
   178  180  182 1   
   179  183  184 1   
   180  183  185 1   
   181  186  187 1   
   182  186  188 1   
@<TRIPOS>SUBSTRUCTURE
     1 MOL         1 TEMP              0 ****  ****    0 ROOT
