@<TRIPOS>MOLECULE
MOL
  189   185     1     0     0
SMALL
resp


@<TRIPOS>ATOM
      1 C1         -4.1260   -5.0100   -2.5500 c3        1 MOL     -0.357587
      2 C2         -4.8440   -3.9840   -1.6970 c         1 MOL      0.889808
      3 O1         -4.2700   -3.4810   -0.7470 o         1 MOL     -0.718617
      4 H1         -3.1250   -5.1770   -2.1520 hc        1 MOL      0.081611
      5 H2         -4.6810   -5.9470   -2.5380 hc        1 MOL      0.081611
      6 H3         -4.0520   -4.6440   -3.5740 hc        1 MOL      0.081611
      7 N1         -6.0680   -3.6680   -2.0190 n         1 MOL     -0.660553
      8 C3         -6.9270   -2.5880   -1.5550 c3        1 MOL      0.246068
      9 C4         -6.2700   -1.1400   -1.4190 c         1 MOL      0.469001
     10 O2         -5.6990   -0.8640   -0.3610 o         1 MOL     -0.591314
     11 C5         -7.6890   -2.9180   -0.2040 c3        1 MOL     -0.147623
     12 C6         -6.9370   -3.7590    0.8470 c         1 MOL      0.765830
     13 O3         -6.2950   -3.2050    1.7840 o         1 MOL     -0.741386
     14 O4         -7.0350   -5.0330    0.8220 o         1 MOL     -0.741386
     15 H4         -6.4470   -4.2020   -2.7930 hn        1 MOL      0.310213
     16 H5         -7.6590   -2.4590   -2.3530 h1        1 MOL     -0.003088
     17 H6         -8.5670   -3.4760   -0.5250 hc        1 MOL      0.020476
     18 H7         -7.9660   -1.9580    0.2400 hc        1 MOL      0.020476
     19 N2         -6.1400   -0.4960   -2.5950 n         1 MOL     -0.564745
     20 C7         -5.3210    0.6970   -2.9950 c3        1 MOL      0.287441
     21 C8         -5.9300    1.9360   -2.3920 c         1 MOL      0.316251
     22 O5         -6.2760    2.8120   -3.2240 o         1 MOL     -0.540241
     23 C9         -3.7800    0.4130   -2.7710 c3        1 MOL      0.052976
     24 C10        -2.7540    1.4120   -3.4300 c3        1 MOL      0.217614
     25 C11        -3.3070   -0.9560   -3.2870 c3        1 MOL     -0.166765
     26 C12        -2.6310    1.4030   -4.9740 c3        1 MOL     -0.393378
     27 H8         -6.4800   -1.0100   -3.3900 hn        1 MOL      0.301616
     28 H9         -5.4590    0.8090   -4.0660 h1        1 MOL      0.010377
     29 H10        -3.6150    0.4620   -1.6960 hc        1 MOL     -0.051638
     30 H11        -1.7330    1.3440   -3.0610 hc        1 MOL     -0.000266
     31 H12        -3.1240    2.3850   -3.1340 hc        1 MOL     -0.000266
     32 H13        -2.2240   -1.0240   -3.2400 hc        1 MOL      0.023674
     33 H14        -3.7890   -1.7570   -2.7280 hc        1 MOL      0.023674
     34 H15        -3.7490   -1.0670   -4.2830 hc        1 MOL      0.023674
     35 H16        -1.8280    2.1120   -5.1770 hc        1 MOL      0.074050
     36 H17        -2.2320    0.4570   -5.3420 hc        1 MOL      0.074050
     37 H18        -3.5390    1.8420   -5.3880 hc        1 MOL      0.074050
     38 N3         -6.0680    1.9880   -1.0490 n         1 MOL     -0.084515
     39 C13        -6.6430    3.1510   -0.3740 c3        1 MOL      0.004974
     40 C14        -5.7780    4.3430   -0.5150 c         1 MOL      0.546197
     41 O6         -6.2540    5.4890   -0.7130 o         1 MOL     -0.596980
     42 C15        -6.8710    2.7860    1.1150 c3        1 MOL     -0.357605
     43 C16        -7.6850    1.4620    1.1890 c         1 MOL      0.832786
     44 O7         -8.7670    1.3320    0.6180 o         1 MOL     -0.712292
     45 O8         -7.3190    0.6270    2.0490 o         1 MOL     -0.712292
     46 H19        -5.8400    1.1700   -0.4960 hn        1 MOL      0.173222
     47 H20        -7.6080    3.2860   -0.8560 h1        1 MOL      0.062758
     48 H21        -7.4970    3.6060    1.4720 hc        1 MOL      0.102216
     49 H22        -5.9640    2.6520    1.6880 hc        1 MOL      0.102216
     50 N4         -4.4360    4.3300   -0.4760 n         1 MOL     -0.508728
     51 C17        -3.4870    3.3840    0.0140 c3        1 MOL      0.436887
     52 C18        -2.3830    4.1500    0.7420 c         1 MOL      0.367412
     53 O9         -2.0860    5.3000    0.2360 o         1 MOL     -0.581044
     54 H23        -4.0080    5.2220   -0.6970 hn        1 MOL      0.277727
     55 H24        -3.0960    2.7830   -0.8160 h1        1 MOL     -0.088430
     56 H25        -4.0590    2.7860    0.7280 h1        1 MOL     -0.088430
     57 N5         -1.8180    3.7170    1.8350 n         1 MOL     -0.388514
     58 C19        -2.0980    2.4640    2.5340 c3        1 MOL      0.402316
     59 C20        -2.2160    1.1820    1.6700 c         1 MOL      0.099656
     60 O10        -3.2770    0.5890    1.6050 o         1 MOL     -0.322643
     61 C21        -3.3410    2.6810    3.4470 c3        1 MOL     -0.328663
     62 C22        -3.3660    1.7990    4.6280 c         1 MOL      0.728203
     63 O11        -3.9600    2.2420    5.6480 o         1 MOL     -0.707899
     64 O12        -2.7360    0.7500    4.6290 o         1 MOL     -0.707899
     65 H26        -1.1280    4.3150    2.2790 hn        1 MOL      0.259192
     66 H27        -1.3170    2.2830    3.2720 h1        1 MOL      0.018504
     67 H28        -4.1710    2.3930    2.8060 hc        1 MOL      0.055985
     68 H29        -3.3410    3.7130    3.8020 hc        1 MOL      0.055985
     69 N6         -1.0940    0.7290    0.9480 n         1 MOL     -0.154913
     70 C23         0.2560    1.3880    1.0240 c3        1 MOL     -0.197278
     71 C24         0.4820    2.5930    0.1170 c         1 MOL      0.711923
     72 O13        -0.1960    2.7770   -0.8740 o         1 MOL     -0.528453
     73 H30        -1.2330   -0.1030    0.3990 hn        1 MOL      0.130000
     74 H31         1.0050    0.6240    0.8020 h1        1 MOL      0.044851
     75 H32         0.4330    1.7940    2.0170 h1        1 MOL      0.044851
     76 N7          1.4540    3.4510    0.4050 n         1 MOL     -0.703058
     77 C25         1.8440    4.6860   -0.3160 c3        1 MOL     -0.026814
     78 C26         2.4770    4.4330   -1.6540 c         1 MOL      0.478946
     79 O14         2.8930    5.3680   -2.3560 o         1 MOL     -0.555766
     80 C27         2.7290    5.5720    0.5540 c3        1 MOL      0.107938
     81 C28         1.9240    6.5180    1.4620 c3        1 MOL     -0.263820
     82 C29         2.7900    7.3240    2.3250 c         1 MOL      0.767150
     83 N8          2.2620    8.4100    2.8010 n         1 MOL     -0.822910
     84 O15         3.9510    7.0840    2.5660 o         1 MOL     -0.591869
     85 H33         1.7360    3.5090    1.3770 hn        1 MOL      0.359672
     86 H34         0.9480    5.2620   -0.5250 h1        1 MOL      0.146637
     87 H35         3.4350    6.1770   -0.0240 hc        1 MOL      0.000047
     88 H36         3.3460    4.8940    1.1530 hc        1 MOL      0.000047
     89 H37         1.2590    5.9160    2.0880 hc        1 MOL      0.076674
     90 H38         1.3070    7.1870    0.8730 hc        1 MOL      0.076674
     91 H39         1.3110    8.7270    2.6420 hn        1 MOL      0.354946
     92 H40         2.6990    8.9530    3.5230 hn        1 MOL      0.354946
     93 N9          2.8030    3.1890   -1.9300 n         1 MOL     -0.201525
     94 C30         3.1610    2.6110   -3.2600 c3        1 MOL     -0.044089
     95 C31         4.4610    1.9200   -3.4170 c         1 MOL      0.303099
     96 O16         4.8680    1.6600   -4.5490 o         1 MOL     -0.498903
     97 C32         2.1480    1.5440   -3.7600 c3        1 MOL      0.108424
     98 C33         0.8660    2.2070   -4.1630 c3        1 MOL     -0.252986
     99 C34         1.9830    0.3520   -2.8050 c3        1 MOL     -0.252986
    100 H41         2.5420    2.4860   -1.2490 hn        1 MOL      0.186298
    101 H42         3.2080    3.3660   -4.0470 h1        1 MOL      0.136399
    102 H43         2.5130    1.1300   -4.7060 hc        1 MOL      0.037292
    103 H44         0.2750    1.4870   -4.7250 hc        1 MOL      0.074334
    104 H45         0.2490    2.5630   -3.3490 hc        1 MOL      0.074334
    105 H46         0.9850    3.1000   -4.7760 hc        1 MOL      0.074334
    106 H47         1.0730   -0.1270   -3.1580 hc        1 MOL      0.074334
    107 H48         2.7830   -0.3780   -2.9700 hc        1 MOL      0.074334
    108 H49         1.9120    0.6950   -1.7740 hc        1 MOL      0.074334
    109 N10         5.2390    1.8720   -2.3130 n         1 MOL     -0.144813
    110 C35         6.7070    1.6140   -2.1790 c3        1 MOL      0.134638
    111 C36         6.9720    0.0870   -1.9130 c         1 MOL      0.412855
    112 O17         7.9920   -0.4890   -2.3780 o         1 MOL     -0.529507
    113 C37         7.1930    2.3950   -0.9560 c3        1 MOL     -0.413112
    114 C38         6.9570    3.9100   -1.2920 c         1 MOL      0.686897
    115 N11         6.0870    4.4320   -0.4480 n         1 MOL     -0.784208
    116 O18         7.4840    4.5210   -2.1950 o         1 MOL     -0.533628
    117 H50         4.7220    2.1890   -1.5110 hn        1 MOL      0.192922
    118 H51         7.2310    1.8230   -3.1190 h1        1 MOL      0.082737
    119 H52         8.2760    2.3170   -0.8990 hc        1 MOL      0.107435
    120 H53         6.6810    2.0550   -0.0510 hc        1 MOL      0.107435
    121 H54         5.7870    3.8110    0.2910 hn        1 MOL      0.364262
    122 H55         6.0510    5.4450   -0.3610 hn        1 MOL      0.364262
    123 N12         6.0610   -0.6490   -1.2560 n         1 MOL     -0.285021
    124 C39         6.4050   -1.9900   -0.8590 c3        1 MOL      0.163153
    125 C40         5.1830   -2.8370   -0.3410 c         1 MOL      0.303198
    126 O19         4.0560   -2.3130   -0.1820 o         1 MOL     -0.399477
    127 C41         7.5110   -1.9230    0.2340 c3        1 MOL     -0.390203
    128 C42         7.2700   -0.9290    1.3570 ca        1 MOL      0.113309
    129 C43         8.1370    0.1780    1.6490 ca        1 MOL     -0.100543
    130 C44         6.2880   -1.2570    2.3020 ca        1 MOL     -0.100543
    131 C45         7.9290    0.9820    2.7780 ca        1 MOL     -0.338744
    132 C46         6.0200   -0.4230    3.4310 ca        1 MOL     -0.338744
    133 C47         6.8770    0.6820    3.6940 ca        1 MOL      0.407708
    134 O20         6.7630    1.3290    4.8550 oh        1 MOL     -0.569868
    135 H56         5.1600   -0.2770   -0.9770 hn        1 MOL      0.162354
    136 H57         6.6820   -2.5060   -1.7790 h1        1 MOL      0.063559
    137 H58         8.5080   -1.7170   -0.1670 hc        1 MOL      0.126779
    138 H59         7.5190   -2.9300    0.6380 hc        1 MOL      0.126779
    139 H60         8.9370    0.3600    0.9540 ha        1 MOL      0.118494
    140 H61         5.6300   -2.1040    2.1760 ha        1 MOL      0.118494
    141 H62         8.5010    1.8440    3.0860 ha        1 MOL      0.167511
    142 H63         5.2720   -0.7140    4.1490 ha        1 MOL      0.167511
    143 H64         6.0110    1.0220    5.3740 ho        1 MOL      0.435520
    144 N13         5.3630   -4.1660   -0.0800 n         1 MOL     -0.425476
    145 C48         4.4060   -4.9790    0.6810 c3        1 MOL      0.147950
    146 C49         3.0380   -5.4270    0.0470 c         1 MOL      0.288933
    147 O21         2.7200   -6.5930    0.0840 o         1 MOL     -0.490067
    148 C50         4.2040   -4.6050    2.1040 c3        1 MOL     -0.185712
    149 C51         3.4020   -5.6030    2.9570 c3        1 MOL     -0.175941
    150 C52         3.6780   -5.5790    4.4310 c         1 MOL      0.626165
    151 O22         3.9810   -4.4840    4.9670 o         1 MOL     -0.718168
    152 O23         3.4130   -6.6830    5.0650 o         1 MOL     -0.718168
    153 H65         6.2960   -4.5140   -0.2410 hn        1 MOL      0.280751
    154 H66         4.9370   -5.9260    0.8000 h1        1 MOL      0.044599
    155 H67         3.7180   -3.6410    2.1930 hc        1 MOL      0.097607
    156 H68         5.1940   -4.5710    2.5600 hc        1 MOL      0.097607
    157 H69         3.5610   -6.6040    2.5570 hc        1 MOL      0.071150
    158 H70         2.3360   -5.3640    2.9240 hc        1 MOL      0.071150
    159 N14         2.3560   -4.4690   -0.5590 n         1 MOL     -0.254255
    160 C53         1.2450   -4.5720   -1.4910 c3        1 MOL     -0.065916
    161 C54         1.6960   -5.2970   -2.7980 c         1 MOL      0.376710
    162 O24         0.9560   -5.4940   -3.7640 o         1 MOL     -0.533910
    163 C55         0.6810   -3.2140   -1.8530 c3        1 MOL     -0.069301
    164 C56         0.3100   -2.2840   -0.7650 c3        1 MOL      0.222080
    165 C57        -0.8190   -2.7430    0.2080 c         1 MOL      0.645703
    166 O25        -1.8310   -1.9780    0.3160 o         1 MOL     -0.639201
    167 O26        -0.6750   -3.7810    0.8000 o         1 MOL     -0.639201
    168 H71         2.7100   -3.5200   -0.5000 hn        1 MOL      0.209640
    169 H72         0.4660   -5.1720   -1.0310 h1        1 MOL      0.168567
    170 H73        -0.2320   -3.3010   -2.4390 hc        1 MOL      0.017682
    171 H74         1.4370   -2.6580   -2.4200 hc        1 MOL      0.017682
    172 H75        -0.0690   -1.4080   -1.2960 hc        1 MOL     -0.039997
    173 H76         1.2380   -2.0280   -0.2450 hc        1 MOL     -0.039997
    174 N15         2.9410   -5.7190   -2.9430 n         1 MOL     -0.039263
    175 C58         3.4720   -6.5730   -3.9580 c3        1 MOL     -0.330695
    176 H77         4.4920   -6.8560   -3.6960 h1        1 MOL      0.112164
    177 H78         2.8570   -7.4690   -4.0380 h1        1 MOL      0.112164
    178 H79         3.4760   -6.0460   -4.9120 h1        1 MOL      0.112164
    179 H80         3.6530   -5.4620   -2.2680 hn        1 MOL      0.143158
    180 Ca1        -4.0820   -2.0730    1.4730 Ca        1 MOL      1.784134
    181 O27        -2.7350   -4.4890    2.3740 oh        1 MOL     -0.895405
    182 H81        -1.8540   -4.4540    2.0120 ho        1 MOL      0.419879
    183 H82        -2.7480   -5.2920    2.9020 ho        1 MOL      0.419879
    184 O28        -5.3540   -0.4910    3.4120 oh        1 MOL     -0.895405
    185 H83        -6.0840   -0.0290    2.9830 ho        1 MOL      0.419879
    186 H84        -5.3000   -0.0910    4.2880 ho        1 MOL      0.419879
    187 O29        -2.3800   -1.6330    3.4900 oh        1 MOL     -0.895405
    188 H85        -1.4310   -1.6880    3.3990 ho        1 MOL      0.419879
    189 H86        -2.5220   -0.8480    4.0070 ho        1 MOL      0.419879
@<TRIPOS>BOND
     1    1    2 1   
     2    1    4 1   
     3    1    5 1   
     4    1    6 1   
     5    2    3 2   
     6    2    7 1   
     7    7    8 1   
     8    7   15 1   
     9    8    9 1   
    10    8   11 1   
    11    8   16 1   
    12    9   10 2   
    13    9   19 1   
    14   11   12 1   
    15   11   17 1   
    16   11   18 1   
    17   12   13 1   
    18   12   14 1   
    19   19   20 1   
    20   19   27 1   
    21   20   21 1   
    22   20   23 1   
    23   20   28 1   
    24   21   22 2   
    25   21   38 1   
    26   23   24 1   
    27   23   25 1   
    28   23   29 1   
    29   24   26 1   
    30   24   30 1   
    31   24   31 1   
    32   25   32 1   
    33   25   33 1   
    34   25   34 1   
    35   26   35 1   
    36   26   36 1   
    37   26   37 1   
    38   38   39 1   
    39   38   46 1   
    40   39   40 1   
    41   39   42 1   
    42   39   47 1   
    43   40   41 2   
    44   40   50 1   
    45   42   43 1   
    46   42   48 1   
    47   42   49 1   
    48   43   44 1   
    49   43   45 1   
    50   50   51 1   
    51   50   54 1   
    52   51   52 1   
    53   51   55 1   
    54   51   56 1   
    55   52   53 2   
    56   52   57 1   
    57   57   58 1   
    58   57   65 1   
    59   58   59 1   
    60   58   61 1   
    61   58   66 1   
    62   59   60 2   
    63   59   69 1   
    64   61   62 1   
    65   61   67 1   
    66   61   68 1   
    67   62   63 1   
    68   62   64 1   
    69   69   70 1   
    70   69   73 1   
    71   70   71 1   
    72   70   74 1   
    73   70   75 1   
    74   71   72 2   
    75   71   76 1   
    76   76   77 1   
    77   76   85 1   
    78   77   78 1   
    79   77   80 1   
    80   77   86 1   
    81   78   79 2   
    82   78   93 1   
    83   80   81 1   
    84   80   87 1   
    85   80   88 1   
    86   81   82 1   
    87   81   89 1   
    88   81   90 1   
    89   82   83 1   
    90   82   84 2   
    91   83   91 1   
    92   83   92 1   
    93   93   94 1   
    94   93  100 1   
    95   94   95 1   
    96   94   97 1   
    97   94  101 1   
    98   95   96 2   
    99   95  109 1   
   100   97   98 1   
   101   97   99 1   
   102   97  102 1   
   103   98  103 1   
   104   98  104 1   
   105   98  105 1   
   106   99  106 1   
   107   99  107 1   
   108   99  108 1   
   109  109  110 1   
   110  109  117 1   
   111  110  111 1   
   112  110  113 1   
   113  110  118 1   
   114  111  112 2   
   115  111  123 1   
   116  113  114 1   
   117  113  119 1   
   118  113  120 1   
   119  114  115 1   
   120  114  116 2   
   121  115  121 1   
   122  115  122 1   
   123  123  124 1   
   124  123  135 1   
   125  124  125 1   
   126  124  127 1   
   127  124  136 1   
   128  125  126 2   
   129  125  144 1   
   130  127  128 1   
   131  127  137 1   
   132  127  138 1   
   133  128  129 ar  
   134  128  130 ar  
   135  129  131 ar  
   136  129  139 1   
   137  130  132 ar  
   138  130  140 1   
   139  131  133 ar  
   140  131  141 1   
   141  132  133 ar  
   142  132  142 1   
   143  133  134 1   
   144  134  143 1   
   145  144  145 1   
   146  144  153 1   
   147  145  146 1   
   148  145  148 1   
   149  145  154 1   
   150  146  147 2   
   151  146  159 1   
   152  148  149 1   
   153  148  155 1   
   154  148  156 1   
   155  149  150 1   
   156  149  157 1   
   157  149  158 1   
   158  150  151 1   
   159  150  152 1   
   160  159  160 1   
   161  159  168 1   
   162  160  161 1   
   163  160  163 1   
   164  160  169 1   
   165  161  162 2   
   166  161  174 1   
   167  163  164 1   
   168  163  170 1   
   169  163  171 1   
   170  164  165 1   
   171  164  172 1   
   172  164  173 1   
   173  165  166 1   
   174  165  167 1   
   175  174  175 1   
   176  174  179 1   
   177  175  176 1   
   178  175  177 1   
   179  175  178 1   
   180  181  182 1   
   181  181  183 1   
   182  184  185 1   
   183  184  186 1   
   184  187  188 1   
   185  187  189 1   
@<TRIPOS>SUBSTRUCTURE
     1 MOL         1 TEMP              0 ****  ****    0 ROOT
