@<TRIPOS>MOLECULE
MOL
  190   183     1     0     0
SMALL
resp


@<TRIPOS>ATOM
      1 C1          1.7860   -1.9680    3.9510 c3        1 MOL     -0.201489
      2 C2          2.8960   -1.2340    3.1060 c         1 MOL      0.477112
      3 O1          2.6990   -0.7310    1.9910 o         1 MOL     -0.472667
      4 H1          1.1950   -1.2290    4.4920 hc        1 MOL      0.042001
      5 H2          1.1370   -2.5350    3.2850 hc        1 MOL      0.042001
      6 H3          2.2590   -2.6450    4.6620 hc        1 MOL      0.042001
      7 N1          4.1200   -1.1050    3.5820 n         1 MOL     -0.373803
      8 C3          5.1740   -0.2150    2.9990 c3        1 MOL      0.123686
      9 C4          5.8010   -0.9530    1.8150 c         1 MOL      0.141404
     10 O2          6.3140   -0.2040    0.9750 o         1 MOL     -0.303782
     11 C5          6.2610    0.0410    4.0640 c3        1 MOL     -0.175360
     12 C6          7.2500    1.0870    3.5070 c         1 MOL      0.668129
     13 O3          6.8300    2.2390    3.3000 o         1 MOL     -0.693390
     14 O4          8.3920    0.7930    3.1110 o         1 MOL     -0.693390
     15 H4          4.2940   -1.5710    4.4580 hn        1 MOL      0.239377
     16 H5          4.6690    0.6960    2.6600 h1        1 MOL      0.123666
     17 H6          6.8130   -0.8700    4.3010 hc        1 MOL     -0.006980
     18 H7          5.8370    0.3710    5.0080 hc        1 MOL     -0.006980
     19 N2          5.8880   -2.2690    1.7590 n         1 MOL     -0.000631
     20 C7          6.5890   -2.9400    0.6350 c3        1 MOL     -0.005384
     21 C8          6.2710   -2.4640   -0.8200 c         1 MOL      0.596803
     22 O5          7.1070   -2.2100   -1.6480 o         1 MOL     -0.544652
     23 C9          8.1120   -2.9620    0.9120 c3        1 MOL     -0.557422
     24 H8          5.5240   -2.7900    2.5460 hn        1 MOL      0.111141
     25 H9          6.2890   -3.9960    0.6060 h1        1 MOL      0.049572
     26 H10         8.6110   -3.5170    0.1180 hc        1 MOL      0.152806
     27 H11         8.5660   -1.9690    0.9080 hc        1 MOL      0.152806
     28 H12         8.3410   -3.3740    1.8870 hc        1 MOL      0.152806
     29 N3          4.9990   -2.3010   -1.0550 n         1 MOL     -0.324764
     30 C10         4.4280   -1.7110   -2.3210 c3        1 MOL     -0.103024
     31 C11         5.1830   -0.4380   -2.8190 c         1 MOL      0.487303
     32 O6          5.0220   -0.0960   -3.9910 o         1 MOL     -0.489247
     33 C12         4.2350   -2.8370   -3.3450 c3        1 MOL     -0.258028
     34 C13         3.4630   -3.9700   -2.7020 c         1 MOL      0.790917
     35 O7          4.1230   -4.8290   -2.1010 o         1 MOL     -0.734346
     36 O8          2.2380   -4.0340   -2.8030 o         1 MOL     -0.734346
     37 H13         4.3470   -2.7810   -0.4520 hn        1 MOL      0.077823
     38 H14         3.4270   -1.3700   -2.0720 h1        1 MOL      0.227931
     39 H15         5.2200   -3.2510   -3.5790 hc        1 MOL      0.067444
     40 H16         3.7950   -2.5010   -4.2860 hc        1 MOL      0.067444
     41 N4          5.9470    0.2880   -1.9790 n         1 MOL     -0.134805
     42 C14         6.5100    1.5490   -2.2860 c3        1 MOL     -0.059136
     43 C15         5.5490    2.5980   -2.7320 c         1 MOL      0.406285
     44 O9          5.7910    3.4050   -3.6500 o         1 MOL     -0.567310
     45 H17         6.1790   -0.1140   -1.0770 hn        1 MOL      0.116908
     46 H18         7.3700    1.5780   -2.9620 h1        1 MOL      0.074276
     47 H19         6.9730    1.9050   -1.3710 h1        1 MOL      0.074276
     48 N5          4.3300    2.5600   -2.2530 n         1 MOL     -0.062875
     49 C16         3.2540    3.4180   -2.5820 c3        1 MOL     -0.110311
     50 C17         3.1370    4.5960   -1.6270 c         1 MOL      0.433777
     51 O10         3.1160    4.5080   -0.3790 o         1 MOL     -0.522092
     52 C18         1.8950    2.6500   -2.5230 c3        1 MOL     -0.153150
     53 C19         1.7890    1.6330   -3.6660 c         1 MOL      0.518070
     54 N6          1.2740    0.4570   -3.3910 n         1 MOL     -0.686132
     55 O11         2.0290    1.9630   -4.8020 o         1 MOL     -0.569412
     56 H20         4.0460    1.8430   -1.5960 hn        1 MOL      0.092633
     57 H21         3.3740    3.7590   -3.6060 h1        1 MOL      0.095573
     58 H22         1.0470    3.3240   -2.5730 hc        1 MOL      0.125670
     59 H23         1.8280    2.1310   -1.5540 hc        1 MOL      0.125670
     60 H24         1.1550    0.0730   -2.4680 hn        1 MOL      0.344100
     61 H25         1.0320    0.0100   -4.2670 hn        1 MOL      0.344100
     62 N7          2.8440    5.7200   -2.2410 n         1 MOL     -0.312077
     63 C20         2.4920    6.9280   -1.4090 c3        1 MOL     -0.170278
     64 C21         1.0240    7.1370   -1.0660 c         1 MOL      0.652155
     65 O12         0.1650    6.6950   -1.7910 o         1 MOL     -0.516038
     66 H26         2.9080    5.7360   -3.2420 hn        1 MOL      0.262044
     67 H27         2.7310    7.7980   -2.0270 h1        1 MOL      0.100165
     68 H28         3.1700    6.9790   -0.5500 h1        1 MOL      0.100165
     69 N8          0.7490    7.7820    0.1000 n         1 MOL     -0.515080
     70 C22        -0.6200    8.2370    0.3770 c3        1 MOL     -0.161036
     71 C23        -1.5730    7.0270    0.7950 c         1 MOL      0.439637
     72 O13        -2.8200    7.1860    0.7710 o         1 MOL     -0.551310
     73 C24        -0.6880    9.3520    1.4370 c3        1 MOL      0.386853
     74 C25         0.0790    8.9660    2.7110 c3        1 MOL     -0.121892
     75 O14        -0.1760   10.5920    1.0630 oh        1 MOL     -0.594311
     76 H29         1.4480    8.2640    0.6510 hn        1 MOL      0.285557
     77 H30        -1.1170    8.5730   -0.5290 h1        1 MOL      0.111097
     78 H31        -1.7270    9.4840    1.7240 h1        1 MOL     -0.020110
     79 H32        -0.7520   10.8070    0.3330 ho        1 MOL      0.364647
     80 H33        -0.3930    8.1370    3.2410 hc        1 MOL      0.034686
     81 H34         1.0920    8.6330    2.4790 hc        1 MOL      0.034686
     82 H35         0.1150    9.8630    3.3210 hc        1 MOL      0.034686
     83 N9         -0.9320    5.8460    1.1030 n         1 MOL     -0.041377
     84 C26        -1.7040    4.6250    1.4710 c3        1 MOL     -0.232326
     85 C27        -1.2370    3.4230    0.5810 c         1 MOL      0.478837
     86 O15        -0.1780    3.5380   -0.0530 o         1 MOL     -0.413868
     87 C28        -1.7350    4.3100    3.0560 c3        1 MOL      0.231806
     88 C29        -0.3280    4.0020    3.4530 c3        1 MOL      0.030189
     89 C30        -2.2960    5.5360    3.8810 c3        1 MOL     -0.306622
     90 C31        -0.2150    3.4270    4.8650 c3        1 MOL     -0.352965
     91 H36         0.0770    5.7800    1.0750 hn        1 MOL      0.146397
     92 H37        -2.7280    4.8400    1.1720 h1        1 MOL      0.102945
     93 H38        -2.3600    3.4230    3.1340 hc        1 MOL     -0.024005
     94 H39         0.2690    4.9090    3.3900 hc        1 MOL      0.057003
     95 H40         0.0110    3.2330    2.7630 hc        1 MOL      0.057003
     96 H41        -3.2920    5.7870    3.5090 hc        1 MOL      0.060370
     97 H42        -2.4380    5.2270    4.9200 hc        1 MOL      0.060370
     98 H43        -1.5980    6.3700    3.8600 hc        1 MOL      0.060370
     99 H44        -0.5160    4.2670    5.4830 hc        1 MOL      0.088329
    100 H45        -0.9070    2.5890    4.9390 hc        1 MOL      0.088329
    101 H46         0.8220    3.1210    4.9710 hc        1 MOL      0.088329
    102 N10        -2.1050    2.3520    0.5090 n         1 MOL     -0.485839
    103 C32        -1.7470    1.2260   -0.3710 c3        1 MOL      0.091546
    104 C33        -2.9940    0.6580   -1.0360 c         1 MOL      0.597383
    105 O16        -2.8240    0.2000   -2.1480 o         1 MOL     -0.522878
    106 C34        -0.8500    0.3100    0.4310 c3        1 MOL     -0.499173
    107 C35        -0.1830   -0.8400   -0.4590 c         1 MOL      0.799695
    108 O17         0.9830   -0.7070   -0.8070 o         1 MOL     -0.679359
    109 O18        -0.8730   -1.8180   -0.7940 o         1 MOL     -0.679359
    110 H47        -3.0220    2.5540    0.8740 hn        1 MOL      0.253156
    111 H48        -1.2100    1.6320   -1.2290 h1        1 MOL      0.088134
    112 H49        -1.4610   -0.2250    1.1680 hc        1 MOL      0.138742
    113 H50        -0.1110    0.9020    0.9660 hc        1 MOL      0.138742
    114 N11        -4.1400    0.7210   -0.4560 n         1 MOL     -0.543105
    115 C36        -5.4550    0.4010   -1.0670 c3        1 MOL      0.398153
    116 C37        -6.3820   -0.4340   -0.1930 c         1 MOL      0.134792
    117 O19        -6.4950    0.0320    0.9430 o         1 MOL     -0.410392
    118 C38        -6.0770    1.7540   -1.5870 c3        1 MOL     -0.339653
    119 C39        -7.1470    1.5210   -2.6570 ca        1 MOL      0.161285
    120 C40        -6.9950    2.1300   -3.9370 ca        1 MOL     -0.153503
    121 C41        -8.2850    0.8000   -2.4620 ca        1 MOL     -0.153503
    122 C42        -8.0100    2.0940   -4.8980 ca        1 MOL     -0.139175
    123 C43        -9.2780    0.6480   -3.3630 ca        1 MOL     -0.139175
    124 C44        -9.1250    1.2570   -4.6430 ca        1 MOL     -0.133681
    125 H51        -4.2320    0.9110    0.5370 hn        1 MOL      0.296805
    126 H52        -5.2980   -0.1050   -2.0210 h1        1 MOL     -0.012751
    127 H53        -5.2730    2.2860   -2.0880 hc        1 MOL      0.117583
    128 H54        -6.5050    2.3060   -0.7460 hc        1 MOL      0.117583
    129 H55        -6.1890    2.7830   -4.2290 ha        1 MOL      0.132478
    130 H56        -8.4340    0.2490   -1.5400 ha        1 MOL      0.132478
    131 H57        -7.8250    2.4470   -5.8930 ha        1 MOL      0.119133
    132 H58       -10.1280    0.0240   -3.1180 ha        1 MOL      0.119133
    133 H59        -9.7840    1.0990   -5.4810 ha        1 MOL      0.106776
    134 N12        -6.9720   -1.5800   -0.6490 n         1 MOL     -0.009507
    135 C45        -7.8530   -2.3560    0.1480 c3        1 MOL      0.022248
    136 C46        -7.2160   -2.7470    1.4580 c         1 MOL      0.488672
    137 O20        -7.8560   -2.5110    2.5200 o         1 MOL     -0.531196
    138 C47        -8.3370   -3.5100   -0.6740 c3        1 MOL     -0.114813
    139 C48        -7.1480   -3.7430   -1.7150 c3        1 MOL     -0.084609
    140 C49        -6.6870   -2.3070   -1.8420 c3        1 MOL     -0.174088
    141 H60        -8.7440   -1.7580    0.3260 h1        1 MOL      0.043595
    142 H61        -8.6030   -4.4190   -0.1270 hc        1 MOL      0.062714
    143 H62        -9.2620   -3.1970   -1.1670 hc        1 MOL      0.062714
    144 H63        -6.3740   -4.3720   -1.2750 hc        1 MOL      0.056671
    145 H64        -7.5210   -4.1230   -2.6640 hc        1 MOL      0.056671
    146 H65        -5.6270   -2.2130   -2.1080 h1        1 MOL      0.107346
    147 H66        -7.2800   -1.9120   -2.6650 h1        1 MOL      0.107346
    148 N13        -5.9340   -3.2000    1.4130 n         1 MOL     -0.440348
    149 C50        -5.2410   -3.5780    2.6610 c3        1 MOL     -0.087530
    150 C51        -5.0890   -2.5200    3.8020 c         1 MOL      0.442595
    151 O21        -4.6670   -2.8250    4.9200 o         1 MOL     -0.528652
    152 C52        -3.7890   -3.9950    2.3830 c3        1 MOL      0.179783
    153 C53        -3.9210   -5.1700    1.4330 c3        1 MOL     -0.286289
    154 C54        -2.5930   -5.8040    0.9910 c         1 MOL      0.843875
    155 O22        -2.4280   -6.1460   -0.1930 o         1 MOL     -0.775782
    156 O23        -1.6580   -6.0650    1.8080 o         1 MOL     -0.775782
    157 H67        -5.4420   -3.3030    0.5330 hn        1 MOL      0.361155
    158 H68        -5.7340   -4.4680    3.0800 h1        1 MOL      0.117858
    159 H69        -3.2640   -4.2210    3.3120 hc        1 MOL     -0.019182
    160 H70        -3.3040   -3.1680    1.8730 hc        1 MOL     -0.019182
    161 H71        -4.3530   -4.8450    0.4860 hc        1 MOL      0.056571
    162 H72        -4.5160   -5.9210    1.9530 hc        1 MOL      0.056571
    163 N14        -5.3780   -1.1980    3.5060 n         1 MOL     -0.143370
    164 C55        -5.3700   -0.1260    4.5500 c3        1 MOL     -0.233405
    165 H73        -5.6240   -0.5590    5.5170 h1        1 MOL      0.101634
    166 H74        -4.3790    0.3240    4.6030 h1        1 MOL      0.101634
    167 H75        -6.1030    0.6380    4.2920 h1        1 MOL      0.101634
    168 H76        -5.6700   -0.9820    2.5620 hn        1 MOL      0.155125
    169 Ca1         1.9280   -5.6650   -0.6660 Ca        1 MOL      1.812838
    170 O24        -0.0880   -7.4640   -0.3550 oh        1 MOL     -0.878683
    171 H77        -0.9420   -7.0530   -0.3850 ho        1 MOL      0.422804
    172 H78        -0.1170   -8.0230    0.4290 ho        1 MOL      0.422804
    173 O25         1.9090   -7.2100   -2.8170 oh        1 MOL     -0.878683
    174 H79         1.0990   -6.9290   -3.2540 ho        1 MOL      0.422804
    175 H80         1.9590   -8.1460   -3.0020 ho        1 MOL      0.422804
    176 O26        -0.3840   -4.3880   -0.8170 oh        1 MOL     -0.878683
    177 H81        -1.2400   -4.8170   -0.6950 ho        1 MOL      0.422804
    178 H82        -0.5770   -3.4560   -0.8230 ho        1 MOL      0.422804
    179 O27         2.8480   -7.9530    0.3520 oh        1 MOL     -0.878683
    180 H83         2.3000   -8.5060    0.8900 ho        1 MOL      0.422804
    181 H84         3.7480   -8.2070    0.5760 ho        1 MOL      0.422804
    182 O28         2.3130   -2.8360    0.1360 oh        1 MOL     -0.878683
    183 H85         2.5270   -2.6190    1.0480 ho        1 MOL      0.422804
    184 H86         1.7620   -2.1150   -0.1620 ho        1 MOL      0.422804
    185 O29         3.9170   -5.2950    1.0410 oh        1 MOL     -0.878683
    186 H87         4.7110   -5.8330    0.9460 ho        1 MOL      0.422804
    187 H88         4.0860   -4.7400    1.8010 ho        1 MOL      0.422804
    188 O30         0.8270   -5.6120    1.7710 oh        1 MOL     -0.878683
    189 H89         1.0730   -5.2350    2.6250 ho        1 MOL      0.422804
    190 H90        -0.1130   -5.7090    1.8130 ho        1 MOL      0.422804
@<TRIPOS>BOND
     1    1    2 1   
     2    1    4 1   
     3    1    5 1   
     4    1    6 1   
     5    2    3 2   
     6    2    7 1   
     7    7    8 1   
     8    7   15 1   
     9    8    9 1   
    10    8   11 1   
    11    8   16 1   
    12    9   10 2   
    13    9   19 1   
    14   11   12 1   
    15   11   17 1   
    16   11   18 1   
    17   12   13 1   
    18   12   14 1   
    19   19   20 1   
    20   19   24 1   
    21   20   21 1   
    22   20   23 1   
    23   20   25 1   
    24   21   22 2   
    25   21   29 1   
    26   23   26 1   
    27   23   27 1   
    28   23   28 1   
    29   29   30 1   
    30   29   37 1   
    31   30   31 1   
    32   30   33 1   
    33   30   38 1   
    34   31   32 2   
    35   31   41 1   
    36   33   34 1   
    37   33   39 1   
    38   33   40 1   
    39   34   35 1   
    40   34   36 1   
    41   41   42 1   
    42   41   45 1   
    43   42   43 1   
    44   42   46 1   
    45   42   47 1   
    46   43   44 2   
    47   43   48 1   
    48   48   49 1   
    49   48   56 1   
    50   49   50 1   
    51   49   52 1   
    52   49   57 1   
    53   50   51 2   
    54   50   62 1   
    55   52   53 1   
    56   52   58 1   
    57   52   59 1   
    58   53   54 1   
    59   53   55 2   
    60   54   60 1   
    61   54   61 1   
    62   62   63 1   
    63   62   66 1   
    64   63   64 1   
    65   63   67 1   
    66   63   68 1   
    67   64   65 2   
    68   64   69 1   
    69   69   70 1   
    70   69   76 1   
    71   70   71 1   
    72   70   73 1   
    73   70   77 1   
    74   71   72 2   
    75   71   83 1   
    76   73   74 1   
    77   73   75 1   
    78   73   78 1   
    79   74   80 1   
    80   74   81 1   
    81   74   82 1   
    82   75   79 1   
    83   83   84 1   
    84   83   91 1   
    85   84   85 1   
    86   84   87 1   
    87   84   92 1   
    88   85   86 2   
    89   85  102 1   
    90   87   88 1   
    91   87   89 1   
    92   87   93 1   
    93   88   90 1   
    94   88   94 1   
    95   88   95 1   
    96   89   96 1   
    97   89   97 1   
    98   89   98 1   
    99   90   99 1   
   100   90  100 1   
   101   90  101 1   
   102  102  103 1   
   103  102  110 1   
   104  103  104 1   
   105  103  106 1   
   106  103  111 1   
   107  104  105 2   
   108  104  114 1   
   109  106  107 1   
   110  106  112 1   
   111  106  113 1   
   112  107  108 1   
   113  107  109 1   
   114  114  115 1   
   115  114  125 1   
   116  115  116 1   
   117  115  118 1   
   118  115  126 1   
   119  116  117 2   
   120  116  134 1   
   121  118  119 1   
   122  118  127 1   
   123  118  128 1   
   124  119  120 ar  
   125  119  121 ar  
   126  120  122 ar  
   127  120  129 1   
   128  121  123 ar  
   129  121  130 1   
   130  122  124 ar  
   131  122  131 1   
   132  123  124 ar  
   133  123  132 1   
   134  124  133 1   
   135  134  135 1   
   136  134  140 1   
   137  135  136 1   
   138  135  138 1   
   139  135  141 1   
   140  136  137 2   
   141  136  148 1   
   142  138  139 1   
   143  138  142 1   
   144  138  143 1   
   145  139  140 1   
   146  139  144 1   
   147  139  145 1   
   148  140  146 1   
   149  140  147 1   
   150  148  149 1   
   151  148  157 1   
   152  149  150 1   
   153  149  152 1   
   154  149  158 1   
   155  150  151 2   
   156  150  163 1   
   157  152  153 1   
   158  152  159 1   
   159  152  160 1   
   160  153  154 1   
   161  153  161 1   
   162  153  162 1   
   163  154  155 1   
   164  154  156 1   
   165  163  164 1   
   166  163  168 1   
   167  164  165 1   
   168  164  166 1   
   169  164  167 1   
   170  170  171 1   
   171  170  172 1   
   172  173  174 1   
   173  173  175 1   
   174  176  177 1   
   175  176  178 1   
   176  179  180 1   
   177  179  181 1   
   178  182  183 1   
   179  182  184 1   
   180  185  186 1   
   181  185  187 1   
   182  188  189 1   
   183  188  190 1   
@<TRIPOS>SUBSTRUCTURE
     1 MOL         1 TEMP              0 ****  ****    0 ROOT
