@<TRIPOS>MOLECULE
MOL
  204   195     1     0     0
SMALL
resp


@<TRIPOS>ATOM
      1 C1         -4.7800    5.6650    3.4760 c3        1 MOL     -0.358965
      2 C2         -5.2350    4.1830    3.7910 c         1 MOL      0.699102
      3 O1         -4.8030    3.6450    4.8010 o         1 MOL     -0.594581
      4 H1         -4.7940    6.2520    4.3940 hc        1 MOL      0.088218
      5 H2         -3.7690    5.6560    3.0670 hc        1 MOL      0.088218
      6 H3         -5.4620    6.1090    2.7510 hc        1 MOL      0.088218
      7 N1         -6.1170    3.6890    2.9760 n         1 MOL     -0.579803
      8 C3         -6.7770    2.3570    3.0500 c3        1 MOL      0.151571
      9 C4         -5.9070    1.3190    2.3790 c         1 MOL      0.466200
     10 O2         -5.1860    1.6110    1.4240 o         1 MOL     -0.535642
     11 C5         -8.2080    2.4250    2.4230 c3        1 MOL     -0.216363
     12 C6         -8.3060    2.9490    0.9910 c         1 MOL      0.880865
     13 O3         -8.7310    2.2470    0.0570 o         1 MOL     -0.805117
     14 O4         -7.9800    4.1590    0.8700 o         1 MOL     -0.805117
     15 H4         -6.3280    4.2880    2.1830 hn        1 MOL      0.373283
     16 H5         -6.8520    2.1520    4.1170 h1        1 MOL      0.063955
     17 H6         -8.7710    3.0870    3.0840 hc        1 MOL      0.059707
     18 H7         -8.6390    1.4280    2.4740 hc        1 MOL      0.059707
     19 N2         -6.1010    0.0800    2.7890 n         1 MOL     -0.379433
     20 C7         -5.5110   -1.1270    2.1950 c3        1 MOL     -0.329230
     21 C8         -6.2470   -1.6430    0.9370 c         1 MOL      0.652204
     22 O5         -5.7540   -2.6400    0.4300 o         1 MOL     -0.513242
     23 C9         -5.1780   -2.1010    3.2880 c3        1 MOL      0.186831
     24 C10        -6.4430   -2.6920    3.9470 c3        1 MOL     -0.244487
     25 C11        -6.0940   -4.0480    4.5580 c3        1 MOL      0.009126
     26 C12        -7.4030   -4.5750    5.1170 c3        1 MOL     -0.038311
     27 N3         -7.1900   -5.8230    5.9890 n4        1 MOL     -0.134211
     28 H8         -6.8320    0.0250    3.4780 hn        1 MOL      0.233156
     29 H9         -4.5870   -0.7960    1.7310 h1        1 MOL      0.227956
     30 H10        -4.4390   -1.7750    4.0100 hc        1 MOL      0.019362
     31 H11        -4.6510   -2.9260    2.7950 hc        1 MOL      0.019362
     32 H12        -7.2200   -2.8710    3.2080 hc        1 MOL      0.079133
     33 H13        -6.7470   -1.9340    4.6660 hc        1 MOL      0.079133
     34 H14        -5.3670   -3.9540    5.3730 hc        1 MOL      0.049030
     35 H15        -5.7300   -4.7120    3.7740 hc        1 MOL      0.049030
     36 H16        -7.9980   -4.8640    4.2540 hx        1 MOL      0.103804
     37 H17        -7.9120   -3.8110    5.6860 hx        1 MOL      0.103804
     38 H18        -8.0120   -6.2330    6.3880 hn        1 MOL      0.201198
     39 H19        -6.6490   -6.5210    5.5040 hn        1 MOL      0.201198
     40 H20        -6.5880   -5.5460    6.7530 hn        1 MOL      0.201198
     41 N4         -7.3280   -1.0520    0.5180 n         1 MOL     -0.365149
     42 C13        -8.1520   -1.7040   -0.4780 c3        1 MOL      0.099319
     43 C14        -7.7840   -1.0700   -1.8440 c         1 MOL      0.506502
     44 O6         -7.8560    0.0950   -2.0300 o         1 MOL     -0.635707
     45 C15        -9.6160   -1.6050   -0.1260 c3        1 MOL     -0.290239
     46 C16       -10.4880   -2.2450   -1.0860 c         1 MOL      0.863095
     47 O7        -10.6940   -3.4580   -1.0580 o         1 MOL     -0.730220
     48 O8        -11.1650   -1.5060   -1.7860 o         1 MOL     -0.730220
     49 H21        -7.6210   -0.1340    0.8100 hn        1 MOL      0.284089
     50 H22        -8.0430   -2.7870   -0.4390 h1        1 MOL      0.091696
     51 H23        -9.8900   -0.5620   -0.0290 hc        1 MOL      0.045905
     52 H24        -9.6440   -1.9980    0.8930 hc        1 MOL      0.045905
     53 N5         -7.6490   -1.8560   -2.9650 n         1 MOL     -0.439327
     54 C17        -7.7690   -3.3140   -3.0200 c3        1 MOL     -0.162136
     55 C18        -6.4480   -4.1120   -2.6460 c         1 MOL      0.455525
     56 O9         -6.5050   -5.2790   -2.2510 o         1 MOL     -0.514468
     57 H25        -7.4730   -1.4130   -3.8470 hn        1 MOL      0.334226
     58 H26        -8.1230   -3.6780   -3.9800 h1        1 MOL      0.122474
     59 H27        -8.5540   -3.6070   -2.3140 h1        1 MOL      0.122474
     60 N6         -5.3470   -3.3890   -2.6400 n         1 MOL     -0.294307
     61 C19        -4.0320   -3.9480   -2.3960 c3        1 MOL     -0.088438
     62 C20        -3.0450   -2.8010   -1.9270 c         1 MOL      0.454145
     63 O10        -1.8330   -2.7690   -2.3450 o         1 MOL     -0.485739
     64 C21        -3.5350   -4.6420   -3.7060 c3        1 MOL      0.026599
     65 C22        -3.8780   -3.9340   -4.9800 c         1 MOL      0.643920
     66 O11        -4.5280   -4.5690   -5.8550 o         1 MOL     -0.638993
     67 O12        -3.4370   -2.8010   -5.2010 o         1 MOL     -0.638993
     68 H28        -5.4680   -2.4140   -2.8940 hn        1 MOL      0.211280
     69 H29        -4.0680   -4.6750   -1.5760 h1        1 MOL      0.108465
     70 H30        -3.8600   -5.6860   -3.7130 hc        1 MOL      0.002474
     71 H31        -2.4620   -4.8240   -3.6680 hc        1 MOL      0.002474
     72 N7         -3.5240   -1.8770   -1.0930 n         1 MOL     -0.279228
     73 C23        -2.7760   -0.6500   -0.8650 c3        1 MOL     -0.226177
     74 C24        -1.8050   -0.7510    0.2970 c         1 MOL      0.513404
     75 O13        -1.4890   -1.8720    0.8070 o         1 MOL     -0.517986
     76 H32        -4.4720   -1.8340   -0.7290 hn        1 MOL      0.183738
     77 H33        -3.5880    0.0530   -0.6730 h1        1 MOL      0.130096
     78 H34        -2.2130   -0.3960   -1.7600 h1        1 MOL      0.130096
     79 N8         -1.3770    0.4350    0.7820 n         1 MOL     -0.364937
     80 C25        -0.5420    0.6930    1.8980 c3        1 MOL      0.012874
     81 C26         0.5390    1.7160    1.4870 c         1 MOL      0.585549
     82 O14         0.3190    2.6360    0.6080 o         1 MOL     -0.534729
     83 C27        -1.3640    1.1820    3.1590 c3        1 MOL      0.329899
     84 C28        -2.0450    2.5970    3.1080 c3        1 MOL     -0.182424
     85 O15        -2.3780    0.1730    3.3140 oh        1 MOL     -0.582173
     86 H35        -1.7960    1.1980    0.2700 hn        1 MOL      0.221471
     87 H36        -0.1150   -0.2670    2.1880 h1        1 MOL      0.054915
     88 H37        -0.6740    1.1020    4.0020 h1        1 MOL     -0.042749
     89 H38        -2.2140   -0.2310    4.1680 ho        1 MOL      0.369442
     90 H39        -3.0610    2.5010    2.7210 hc        1 MOL      0.053981
     91 H40        -2.0200    3.0140    4.1070 hc        1 MOL      0.053981
     92 H41        -1.3840    3.2340    2.5190 hc        1 MOL      0.053981
     93 N9          1.7440    1.5180    2.0180 n         1 MOL     -0.684281
     94 C29         2.9460    2.2860    1.6520 c3        1 MOL      0.439740
     95 C30         3.8840    1.3990    0.8020 c         1 MOL      0.462416
     96 O16         4.3380    1.9190   -0.2330 o         1 MOL     -0.517142
     97 C31         3.5350    2.9840    2.9160 c3        1 MOL     -0.056536
     98 C32         2.6410    4.0920    3.5470 c3        1 MOL     -0.048161
     99 C33         4.9550    3.6110    2.5890 c3        1 MOL     -0.254223
    100 C34         2.2600    5.2490    2.6600 c3        1 MOL     -0.176626
    101 H42         1.7220    0.8940    2.8180 hn        1 MOL      0.308215
    102 H43         2.6660    3.0530    0.9280 h1        1 MOL      0.029027
    103 H44         3.6980    2.1850    3.6390 hc        1 MOL     -0.002492
    104 H45         3.1730    4.5440    4.3920 hc        1 MOL      0.034585
    105 H46         1.7020    3.6690    3.9170 hc        1 MOL      0.034585
    106 H47         4.8610    4.1300    1.6420 hc        1 MOL      0.081341
    107 H48         5.2950    4.3190    3.3440 hc        1 MOL      0.081341
    108 H49         5.6610    2.7830    2.5720 hc        1 MOL      0.081341
    109 H50         1.5020    5.7860    3.2300 hc        1 MOL      0.054991
    110 H51         3.1100    5.8730    2.4150 hc        1 MOL      0.054991
    111 H52         1.8380    4.9120    1.7120 hc        1 MOL      0.054991
    112 N10         4.1270    0.0960    1.2400 n         1 MOL     -0.504761
    113 C35         4.8870   -0.9640    0.5050 c3        1 MOL     -0.036560
    114 C36         5.7330   -1.7240    1.4880 c         1 MOL      0.577435
    115 O17         5.3840   -1.9050    2.6260 o         1 MOL     -0.516929
    116 C37         3.8820   -1.9580   -0.2060 c3        1 MOL      0.471667
    117 C38         3.0750   -1.3910   -1.4060 c3        1 MOL     -0.332565
    118 O18         4.6770   -2.9950   -0.7110 oh        1 MOL     -0.636291
    119 H53         3.5860   -0.1830    2.0500 hn        1 MOL      0.254738
    120 H54         5.4910   -0.4770   -0.2560 h1        1 MOL      0.111725
    121 H55         3.2330   -2.3810    0.5610 h1        1 MOL     -0.025052
    122 H56         4.3870   -3.7690   -0.2130 ho        1 MOL      0.388820
    123 H57         2.3310   -0.6600   -1.0860 hc        1 MOL      0.103851
    124 H58         3.7030   -1.0500   -2.2310 hc        1 MOL      0.103851
    125 H59         2.4860   -2.2560   -1.7180 hc        1 MOL      0.103851
    126 N11         6.9300   -2.1610    0.9970 n         1 MOL     -0.463276
    127 C39         7.9540   -2.7520    1.9170 c3        1 MOL     -0.201636
    128 C40         9.3740   -2.1730    1.8210 c         1 MOL      0.733604
    129 O19        10.0520   -2.1580    2.8390 o         1 MOL     -0.597145
    130 C41         7.9340   -4.2510    1.9550 c3        1 MOL      0.277793
    131 C42         8.1620   -4.8930    0.5520 c3        1 MOL     -0.224207
    132 O20         6.6790   -4.7730    2.3540 oh        1 MOL     -0.555170
    133 H60         7.1380   -1.9530    0.0370 hn        1 MOL      0.300531
    134 H61         7.7560   -2.3920    2.9340 h1        1 MOL      0.136187
    135 H62         8.7270   -4.6610    2.5830 h1        1 MOL      0.013834
    136 H63         6.5650   -4.4940    3.2670 ho        1 MOL      0.373170
    137 H64         9.1380   -4.5950    0.1630 hc        1 MOL      0.071189
    138 H65         8.1070   -5.9660    0.7390 hc        1 MOL      0.071189
    139 H66         7.4950   -4.5690   -0.2440 hc        1 MOL      0.071189
    140 N12         9.7540   -1.5930    0.6810 n         1 MOL     -0.626367
    141 C43        11.0900   -1.0150    0.2880 c3        1 MOL      0.242439
    142 C44        10.9070   -0.0970   -0.9180 c         1 MOL      0.385674
    143 O21        10.0390   -0.4020   -1.7530 o         1 MOL     -0.498701
    144 C45        12.0490   -2.1930   -0.0690 c3        1 MOL     -0.295711
    145 C46        13.5860   -1.7460   -0.2160 c3        1 MOL      0.317227
    146 C47        14.4850   -2.9570   -0.0690 c3        1 MOL     -0.057839
    147 C48        15.8920   -2.5760    0.3170 c3        1 MOL      0.119387
    148 N13        16.5630   -1.5900   -0.5130 n4        1 MOL     -0.342028
    149 H67         9.1110   -1.7400   -0.0820 hn        1 MOL      0.309690
    150 H68        11.4410   -0.4790    1.1660 h1        1 MOL      0.076897
    151 H69        11.8000   -2.7150   -1.0000 hc        1 MOL      0.090931
    152 H70        11.9400   -2.8420    0.7980 hc        1 MOL      0.090931
    153 H71        13.7810   -1.0490    0.5920 hc        1 MOL     -0.096544
    154 H72        13.6800   -1.3060   -1.2070 hc        1 MOL     -0.096544
    155 H73        14.5250   -3.5450   -0.9900 hc        1 MOL      0.032189
    156 H74        14.0750   -3.5540    0.7560 hc        1 MOL      0.032189
    157 H75        16.5510   -3.4490    0.3840 hx        1 MOL      0.054266
    158 H76        15.8350   -2.2270    1.3510 hx        1 MOL      0.054266
    159 H77        16.5690   -1.8940   -1.4810 hn        1 MOL      0.305597
    160 H78        16.1650   -0.6650   -0.4490 hn        1 MOL      0.305597
    161 H79        17.4890   -1.5260   -0.1460 hn        1 MOL      0.305597
    162 N14        11.6510    0.9760   -1.0990 n         1 MOL     -0.331300
    163 C49        11.4860    1.9900   -2.1900 c3        1 MOL      0.182244
    164 C50        10.1780    2.8030   -2.0010 c         1 MOL      0.377652
    165 O22         9.4260    3.0760   -2.9280 o         1 MOL     -0.481009
    166 C51        12.6760    2.9300   -2.3940 c3        1 MOL      0.121219
    167 C52        13.8260    2.3430   -3.2290 c3        1 MOL     -0.182592
    168 C53        15.0800    3.2460   -3.2340 c         1 MOL      0.567100
    169 O23        16.0190    2.7250   -2.5310 o         1 MOL     -0.660203
    170 O24        14.9890    4.4830   -3.4930 o         1 MOL     -0.660203
    171 H80        12.2790    1.2190   -0.3500 hn        1 MOL      0.189524
    172 H81        11.3800    1.5940   -3.2070 h1        1 MOL      0.044758
    173 H82        12.9640    3.1780   -1.3730 hc        1 MOL      0.023539
    174 H83        12.3950    3.7950   -2.9860 hc        1 MOL      0.023539
    175 H84        13.4640    2.0810   -4.2140 hc        1 MOL      0.005926
    176 H85        14.0940    1.3880   -2.7720 hc        1 MOL      0.005926
    177 N15         9.8470    3.2100   -0.7290 n         1 MOL     -0.388308
    178 C54        10.7080    3.4730    0.4240 c3        1 MOL     -0.033539
    179 H86        10.1890    4.1310    1.1220 h1        1 MOL      0.044072
    180 H87        10.9470    2.5320    0.9210 h1        1 MOL      0.044072
    181 H88        11.6280    3.9520    0.0900 h1        1 MOL      0.044072
    182 H89         8.9100    3.5870   -0.6230 hn        1 MOL      0.290230
    183 Ca1        -8.2330    2.7820   -2.4140 Ca        1 MOL      1.766360
    184 O25       -10.6000    1.5770   -2.0920 oh        1 MOL     -0.788103
    185 H90       -11.5310    1.7780   -2.2440 ho        1 MOL      0.392546
    186 H91       -10.5810    0.6320   -1.9660 ho        1 MOL      0.392546
    187 O26        -9.5000    4.4300   -4.0450 oh        1 MOL     -0.788103
    188 H92       -10.0390    5.1690   -3.7300 ho        1 MOL      0.392546
    189 H93        -9.5030    4.5220   -4.9960 ho        1 MOL      0.392546
    190 O27        -7.0030    5.2370   -2.2860 oh        1 MOL     -0.788103
    191 H94        -7.1190    5.8050   -3.0570 ho        1 MOL      0.392546
    192 H95        -7.2150    5.8030   -1.5420 ho        1 MOL      0.392546
    193 O28        -9.8170    4.6280   -1.1470 oh        1 MOL     -0.788103
    194 H96        -9.2790    4.6720   -0.3530 ho        1 MOL      0.392546
    195 H97       -10.1550    5.5290   -1.2510 ho        1 MOL      0.392546
    196 O29        -6.5400    3.2390   -4.4900 oh        1 MOL     -0.788103
    197 H98        -6.2070    4.1390   -4.4580 ho        1 MOL      0.392546
    198 H99        -6.7430    3.1030   -5.4080 ho        1 MOL      0.392546
    199 O30        -8.8290    1.1880   -4.5180 oh        1 MOL     -0.788103
    200 H100       -9.3040    0.3590   -4.4880 ho        1 MOL      0.392546
    201 H101       -8.1490    1.0360   -5.1840 ho        1 MOL      0.392546
    202 O31        -5.9240    2.2500   -1.3510 oh        1 MOL     -0.788103
    203 H102       -5.8000    1.9130   -0.4600 ho        1 MOL      0.392546
    204 H103       -5.2270    1.8330   -1.8650 ho        1 MOL      0.392546
@<TRIPOS>BOND
     1    1    2 1   
     2    1    4 1   
     3    1    5 1   
     4    1    6 1   
     5    2    3 2   
     6    2    7 1   
     7    7    8 1   
     8    7   15 1   
     9    8    9 1   
    10    8   11 1   
    11    8   16 1   
    12    9   10 2   
    13    9   19 1   
    14   11   12 1   
    15   11   17 1   
    16   11   18 1   
    17   12   13 1   
    18   12   14 1   
    19   19   20 1   
    20   19   28 1   
    21   20   21 1   
    22   20   23 1   
    23   20   29 1   
    24   21   22 2   
    25   21   41 1   
    26   23   24 1   
    27   23   30 1   
    28   23   31 1   
    29   24   25 1   
    30   24   32 1   
    31   24   33 1   
    32   25   26 1   
    33   25   34 1   
    34   25   35 1   
    35   26   27 1   
    36   26   36 1   
    37   26   37 1   
    38   27   38 1   
    39   27   39 1   
    40   27   40 1   
    41   41   42 1   
    42   41   49 1   
    43   42   43 1   
    44   42   45 1   
    45   42   50 1   
    46   43   44 2   
    47   43   53 1   
    48   45   46 1   
    49   45   51 1   
    50   45   52 1   
    51   46   47 1   
    52   46   48 1   
    53   53   54 1   
    54   53   57 1   
    55   54   55 1   
    56   54   58 1   
    57   54   59 1   
    58   55   56 2   
    59   55   60 1   
    60   60   61 1   
    61   60   68 1   
    62   61   62 1   
    63   61   64 1   
    64   61   69 1   
    65   62   63 2   
    66   62   72 1   
    67   64   65 1   
    68   64   70 1   
    69   64   71 1   
    70   65   66 1   
    71   65   67 1   
    72   72   73 1   
    73   72   76 1   
    74   73   74 1   
    75   73   77 1   
    76   73   78 1   
    77   74   75 2   
    78   74   79 1   
    79   79   80 1   
    80   79   86 1   
    81   80   81 1   
    82   80   83 1   
    83   80   87 1   
    84   81   82 2   
    85   81   93 1   
    86   83   84 1   
    87   83   85 1   
    88   83   88 1   
    89   84   90 1   
    90   84   91 1   
    91   84   92 1   
    92   85   89 1   
    93   93   94 1   
    94   93  101 1   
    95   94   95 1   
    96   94   97 1   
    97   94  102 1   
    98   95   96 2   
    99   95  112 1   
   100   97   98 1   
   101   97   99 1   
   102   97  103 1   
   103   98  100 1   
   104   98  104 1   
   105   98  105 1   
   106   99  106 1   
   107   99  107 1   
   108   99  108 1   
   109  100  109 1   
   110  100  110 1   
   111  100  111 1   
   112  112  113 1   
   113  112  119 1   
   114  113  114 1   
   115  113  116 1   
   116  113  120 1   
   117  114  115 2   
   118  114  126 1   
   119  116  117 1   
   120  116  118 1   
   121  116  121 1   
   122  117  123 1   
   123  117  124 1   
   124  117  125 1   
   125  118  122 1   
   126  126  127 1   
   127  126  133 1   
   128  127  128 1   
   129  127  130 1   
   130  127  134 1   
   131  128  129 2   
   132  128  140 1   
   133  130  131 1   
   134  130  132 1   
   135  130  135 1   
   136  131  137 1   
   137  131  138 1   
   138  131  139 1   
   139  132  136 1   
   140  140  141 1   
   141  140  149 1   
   142  141  142 1   
   143  141  144 1   
   144  141  150 1   
   145  142  143 2   
   146  142  162 1   
   147  144  145 1   
   148  144  151 1   
   149  144  152 1   
   150  145  146 1   
   151  145  153 1   
   152  145  154 1   
   153  146  147 1   
   154  146  155 1   
   155  146  156 1   
   156  147  148 1   
   157  147  157 1   
   158  147  158 1   
   159  148  159 1   
   160  148  160 1   
   161  148  161 1   
   162  162  163 1   
   163  162  171 1   
   164  163  164 1   
   165  163  166 1   
   166  163  172 1   
   167  164  165 2   
   168  164  177 1   
   169  166  167 1   
   170  166  173 1   
   171  166  174 1   
   172  167  168 1   
   173  167  175 1   
   174  167  176 1   
   175  168  169 1   
   176  168  170 1   
   177  177  178 1   
   178  177  182 1   
   179  178  179 1   
   180  178  180 1   
   181  178  181 1   
   182  184  185 1   
   183  184  186 1   
   184  187  188 1   
   185  187  189 1   
   186  190  191 1   
   187  190  192 1   
   188  193  194 1   
   189  193  195 1   
   190  196  197 1   
   191  196  198 1   
   192  199  200 1   
   193  199  201 1   
   194  202  203 1   
   195  202  204 1   
@<TRIPOS>SUBSTRUCTURE
     1 MOL         1 TEMP              0 ****  ****    0 ROOT
