@<TRIPOS>MOLECULE
MOL
  175   173     1     0     0
SMALL
resp


@<TRIPOS>ATOM
      1 C1         -6.6510    7.8760    2.2090 c3        1 MOL     -0.430156
      2 C2         -7.3060    7.1390    1.0220 c         1 MOL      0.675170
      3 O1         -7.0810    7.3930   -0.1320 o         1 MOL     -0.558414
      4 H1         -7.1720    8.8180    2.3820 hc        1 MOL      0.099947
      5 H2         -6.7150    7.2560    3.1020 hc        1 MOL      0.099947
      6 H3         -5.6050    8.0770    1.9790 hc        1 MOL      0.099947
      7 N1         -8.0750    6.0800    1.3740 n         1 MOL     -0.497410
      8 C3         -8.7740    5.2800    0.3150 c3        1 MOL      0.138369
      9 C4         -7.8000    4.4000   -0.5200 c         1 MOL      0.559077
     10 O2         -8.2250    3.9670   -1.5910 o         1 MOL     -0.506855
     11 C5         -9.8350    4.4220    1.0050 c3        1 MOL     -0.338706
     12 C6        -10.8130    3.9220   -0.0390 c         1 MOL      0.746196
     13 O3        -11.1030    2.7030   -0.0890 o         1 MOL     -0.727014
     14 O4        -11.4230    4.7280   -0.8030 o         1 MOL     -0.727014
     15 H4         -8.2600    5.9260    2.3570 hn        1 MOL      0.280368
     16 H5         -9.2690    5.9800   -0.3710 h1        1 MOL      0.049137
     17 H6        -10.3160    4.8820    1.8700 hc        1 MOL      0.051487
     18 H7         -9.2520    3.6280    1.4720 hc        1 MOL      0.051487
     19 N2         -6.5810    4.1590    0.0010 n         1 MOL     -0.577584
     20 C7         -5.5370    3.4790   -0.7400 c3        1 MOL      0.484561
     21 C8         -4.7190    2.5620    0.2420 c         1 MOL      0.366053
     22 O5         -4.1600    3.0190    1.2160 o         1 MOL     -0.533934
     23 C9         -4.6570    4.4890   -1.5030 c3        1 MOL     -0.397631
     24 H8         -6.5280    4.4400    0.9700 hn        1 MOL      0.266105
     25 H9         -5.9870    2.8720   -1.5370 h1        1 MOL     -0.036346
     26 H10        -3.9610    3.9830   -2.1860 hc        1 MOL      0.102130
     27 H11        -5.3590    5.0840   -2.0880 hc        1 MOL      0.102130
     28 H12        -4.1210    5.1060   -0.7790 hc        1 MOL      0.102130
     29 N3         -4.5820    1.2690    0.0090 n         1 MOL     -0.224352
     30 C10        -5.2260    0.4320   -1.0070 c3        1 MOL     -0.132173
     31 C11        -5.4780   -0.9720   -0.4160 c         1 MOL      0.527157
     32 O6         -4.8000   -1.3780    0.5450 o         1 MOL     -0.530627
     33 C12        -4.4110    0.3990   -2.3220 c3        1 MOL     -0.058953
     34 C13        -3.0930   -0.2140   -1.9060 c         1 MOL      0.532589
     35 O7         -2.7920   -1.4740   -1.9950 o         1 MOL     -0.688956
     36 O8         -2.2670    0.4360   -1.2730 o         1 MOL     -0.688956
     37 H13        -4.1450    0.6900    0.7100 hn        1 MOL      0.244637
     38 H14        -6.2080    0.8580   -1.1850 h1        1 MOL      0.064260
     39 H15        -4.2170    1.4060   -2.6850 hc        1 MOL      0.039345
     40 H16        -4.8560   -0.2450   -3.0750 hc        1 MOL      0.039345
     41 N4         -6.4210   -1.6930   -0.9830 n         1 MOL     -0.367117
     42 C14        -6.9190   -3.0620   -0.7090 c3        1 MOL     -0.042757
     43 C15        -6.8290   -4.0270   -1.8700 c         1 MOL      0.603349
     44 O9         -7.7580   -4.2160   -2.5940 o         1 MOL     -0.537647
     45 H17        -6.7690   -1.2720   -1.8340 hn        1 MOL      0.299142
     46 H18        -7.9880   -2.9250   -0.5080 h1        1 MOL      0.083985
     47 H19        -6.4720   -3.4390    0.2120 h1        1 MOL      0.083985
     48 N5         -5.7110   -4.8300   -1.9300 n         1 MOL     -0.642413
     49 C16        -4.3840   -4.6590   -1.2690 c3        1 MOL      0.346129
     50 C17        -4.4380   -5.3060    0.0560 c         1 MOL      0.553346
     51 O10        -5.1010   -6.3440    0.2460 o         1 MOL     -0.571133
     52 C18        -3.2370   -5.0620   -2.2080 c3        1 MOL     -0.212912
     53 C19        -1.8030   -4.5860   -1.8780 c         1 MOL      0.519050
     54 N6         -0.8470   -4.9620   -2.7060 n         1 MOL     -0.662901
     55 O11        -1.5740   -3.8410   -0.9900 o         1 MOL     -0.545981
     56 H20        -5.7780   -5.5270   -2.6560 hn        1 MOL      0.315605
     57 H21        -4.2100   -3.6050   -1.0680 h1        1 MOL     -0.020212
     58 H22        -3.4610   -4.6510   -3.1920 hc        1 MOL      0.060536
     59 H23        -3.2630   -6.1530   -2.2780 hc        1 MOL      0.060536
     60 H24        -1.0370   -5.6060   -3.4560 hn        1 MOL      0.340955
     61 H25         0.1090   -4.7560   -2.4750 hn        1 MOL      0.340955
     62 N7         -3.5590   -4.7620    0.9590 n         1 MOL     -0.390734
     63 C20        -3.3300   -5.4040    2.2440 c3        1 MOL     -0.137918
     64 C21        -1.8660   -5.6990    2.5790 c         1 MOL      0.529692
     65 O12        -1.5790   -6.2690    3.5910 o         1 MOL     -0.583890
     66 H26        -2.9770   -3.9920    0.6530 hn        1 MOL      0.297419
     67 H27        -3.7840   -6.3940    2.1650 h1        1 MOL      0.097270
     68 H28        -3.8480   -4.8890    3.0480 h1        1 MOL      0.097270
     69 N8         -0.9550   -5.1790    1.7570 n         1 MOL     -0.202490
     70 C22         0.5500   -5.2140    2.0510 c3        1 MOL      0.023357
     71 C23         1.1680   -3.8070    1.8480 c         1 MOL      0.166600
     72 O13         0.6570   -3.0960    1.0470 o         1 MOL     -0.228973
     73 C24         1.3270   -6.2070    1.1620 c3        1 MOL      0.426528
     74 C25         1.1820   -7.6130    1.6100 c3        1 MOL     -0.485174
     75 O14         0.9180   -6.1360   -0.1820 oh        1 MOL     -0.655542
     76 H29        -1.2230   -4.8440    0.8420 hn        1 MOL      0.158422
     77 H30         0.7940   -5.4690    3.0840 h1        1 MOL      0.056486
     78 H31         2.3880   -6.0290    1.3180 h1        1 MOL     -0.001336
     79 H32         1.4590   -5.4300   -0.5450 ho        1 MOL      0.486257
     80 H33         1.7770   -8.1640    0.8820 hc        1 MOL      0.109902
     81 H34         1.5420   -7.5900    2.6440 hc        1 MOL      0.109902
     82 H35         0.1500   -7.9670    1.6100 hc        1 MOL      0.109902
     83 N9          2.1940   -3.4270    2.6310 n         1 MOL     -0.325928
     84 C26         3.1030   -2.2840    2.3840 c3        1 MOL      0.051520
     85 C27         3.9460   -2.6620    1.1310 c         1 MOL      0.230595
     86 O15         4.7650   -3.5810    1.2290 o         1 MOL     -0.540548
     87 C28         4.0740   -1.9920    3.5300 c3        1 MOL      0.115631
     88 C29         5.1600   -0.8670    3.2040 c3        1 MOL      0.204388
     89 C30         3.3200   -1.6050    4.8570 c3        1 MOL     -0.239934
     90 C31         6.2350   -0.8360    4.2510 c3        1 MOL     -0.134855
     91 H36         2.5590   -4.1760    3.2070 hn        1 MOL      0.269209
     92 H37         2.5650   -1.3430    2.1990 h1        1 MOL      0.053626
     93 H38         4.5260   -2.9780    3.6420 hc        1 MOL     -0.005668
     94 H39         4.6320    0.0900    3.1930 hc        1 MOL     -0.034347
     95 H40         5.6700   -1.1010    2.2620 hc        1 MOL     -0.034347
     96 H41         2.8620   -0.6250    4.8590 hc        1 MOL      0.054140
     97 H42         2.5240   -2.3230    5.0520 hc        1 MOL      0.054140
     98 H43         4.0020   -1.6640    5.7020 hc        1 MOL      0.054140
     99 H44         7.1210   -0.2690    3.9360 hc        1 MOL      0.015464
    100 H45         5.7040   -0.3200    5.0580 hc        1 MOL      0.015464
    101 H46         6.5530   -1.7960    4.6410 hc        1 MOL      0.015464
    102 N10         3.8210   -1.9470    0.0250 n         1 MOL     -0.120655
    103 C32         4.4590   -2.3090   -1.2790 c3        1 MOL      0.200655
    104 C33         5.6300   -1.5020   -1.6350 c         1 MOL      0.398536
    105 O16         6.1490   -1.6590   -2.7390 o         1 MOL     -0.538817
    106 C34         3.4810   -2.4090   -2.4500 c3        1 MOL     -0.495719
    107 C35         2.2260   -3.1980   -1.8870 c         1 MOL      1.055254
    108 O17         2.3100   -4.3800   -1.5300 o         1 MOL     -0.825945
    109 O18         1.0770   -2.7380   -2.0790 o         1 MOL     -0.825945
    110 H47         3.1980   -1.1520    0.0890 hn        1 MOL      0.141453
    111 H48         4.8520   -3.3150   -1.1290 h1        1 MOL      0.070745
    112 H49         4.0320   -2.8850   -3.2520 hc        1 MOL      0.119261
    113 H50         3.2340   -1.3950   -2.7760 hc        1 MOL      0.119261
    114 N11         5.9790   -0.5300   -0.8020 n         1 MOL     -0.263529
    115 C36         6.8440    0.5960   -1.1440 c3        1 MOL      0.202929
    116 C37         6.2960    1.9490   -0.5880 c         1 MOL      0.302298
    117 O19         6.1860    2.0330    0.6680 o         1 MOL     -0.507667
    118 C38         8.2820    0.4230   -0.5820 c3        1 MOL     -0.368919
    119 C39         9.2560    1.4790   -1.1330 ca        1 MOL      0.179790
    120 C40         9.4510    2.6880   -0.4920 ca        1 MOL     -0.206896
    121 C41         9.8420    1.2000   -2.3780 ca        1 MOL     -0.206896
    122 C42        10.1530    3.6780   -1.1910 ca        1 MOL     -0.062634
    123 C43        10.6590    2.1480   -3.0280 ca        1 MOL     -0.062634
    124 C44        10.7690    3.3900   -2.4310 ca        1 MOL     -0.187268
    125 H51         5.5680   -0.6150    0.1070 hn        1 MOL      0.144132
    126 H52         6.8990    0.5450   -2.2320 h1        1 MOL      0.050655
    127 H53         8.5650   -0.5930   -0.8450 hc        1 MOL      0.137796
    128 H54         8.2060    0.5650    0.4970 hc        1 MOL      0.137796
    129 H55         9.0690    2.9720    0.4770 ha        1 MOL      0.143065
    130 H56         9.6480    0.2530   -2.8620 ha        1 MOL      0.143065
    131 H57        10.3710    4.5810   -0.6390 ha        1 MOL      0.102501
    132 H58        11.1980    1.9260   -3.9420 ha        1 MOL      0.102501
    133 H59        11.4400    4.1040   -2.9000 ha        1 MOL      0.110341
    134 N12         6.1820    3.0670   -1.3960 n         1 MOL     -0.079116
    135 C45         6.0970    4.4120   -0.7400 c3        1 MOL      0.038760
    136 C46         4.8590    4.8300    0.1050 c         1 MOL      0.443755
    137 O20         4.8170    5.7730    0.8540 o         1 MOL     -0.544454
    138 C47         6.2670    5.4330   -1.8400 c3        1 MOL     -0.298689
    139 C48         6.9380    4.5520   -2.9040 c3        1 MOL      0.163820
    140 C49         6.2410    3.1910   -2.8540 c3        1 MOL     -0.229236
    141 H60         6.9830    4.4520   -0.1080 h1        1 MOL      0.094311
    142 H61         5.3290    5.7390   -2.2970 hc        1 MOL      0.103450
    143 H62         6.9650    6.2450   -1.6470 hc        1 MOL      0.103450
    144 H63         6.9690    4.9170   -3.9290 hc        1 MOL     -0.005118
    145 H64         7.9880    4.4190   -2.6510 hc        1 MOL     -0.005118
    146 H65         5.2280    3.2660   -3.2470 h1        1 MOL      0.106932
    147 H66         6.7990    2.3840   -3.3230 h1        1 MOL      0.106932
    148 N13         3.8050    4.0370    0.1850 n         1 MOL     -0.219898
    149 C50         2.5230    4.2560    0.9840 c3        1 MOL     -0.365171
    150 C51         2.7140    4.4700    2.5320 c         1 MOL      0.584689
    151 O21         1.7660    4.7360    3.2420 o         1 MOL     -0.514420
    152 C52         1.5980    3.1270    0.6340 c3        1 MOL     -0.048402
    153 C53         2.1410    1.7160    1.1090 c3        1 MOL     -0.257884
    154 C54         1.2660    0.6280    0.6260 c         1 MOL      0.829322
    155 O22         1.6670   -0.0760   -0.3570 o         1 MOL     -0.783304
    156 O23         0.2860    0.0880    1.2390 o         1 MOL     -0.783304
    157 H67         3.7540    3.1860   -0.3610 hn        1 MOL      0.222206
    158 H68         2.2230    5.2390    0.6300 h1        1 MOL      0.194579
    159 H69         1.4570    3.2510   -0.4360 hc        1 MOL      0.091938
    160 H70         0.5870    3.2550    1.0120 hc        1 MOL      0.091938
    161 H71         2.0920    1.7380    2.2030 hc        1 MOL      0.080735
    162 H72         3.1650    1.6160    0.7780 hc        1 MOL      0.080735
    163 N14         3.9500    4.3990    3.1190 n         1 MOL     -0.211527
    164 C55         4.2610    4.8980    4.4460 c3        1 MOL     -0.213260
    165 H73         3.9330    5.9340    4.5300 h1        1 MOL      0.090749
    166 H74         3.7470    4.2930    5.1930 h1        1 MOL      0.090749
    167 H75         5.3370    4.8440    4.6120 h1        1 MOL      0.090749
    168 H76         4.7170    4.0860    2.5410 hn        1 MOL      0.226329
    169 Ca1        -0.5750   -1.4310   -0.7780 Ca        1 MOL      1.728329
    170 O24        -2.3150   -2.0400    1.5540 oh        1 MOL     -0.843057
    171 H77        -3.1170   -1.6140    1.2650 ho        1 MOL      0.404988
    172 H78        -2.1000   -1.6030    2.3920 ho        1 MOL      0.404988
    173 O25         0.0230    0.1370   -2.9690 oh        1 MOL     -0.843057
    174 H79        -0.6060    0.7910   -3.2720 ho        1 MOL      0.404988
    175 H80         0.4040   -0.2300   -3.7720 ho        1 MOL      0.404988
@<TRIPOS>BOND
     1    1    2 1   
     2    1    4 1   
     3    1    5 1   
     4    1    6 1   
     5    2    3 2   
     6    2    7 1   
     7    7    8 1   
     8    7   15 1   
     9    8    9 1   
    10    8   11 1   
    11    8   16 1   
    12    9   10 2   
    13    9   19 1   
    14   11   12 1   
    15   11   17 1   
    16   11   18 1   
    17   12   13 1   
    18   12   14 1   
    19   19   20 1   
    20   19   24 1   
    21   20   21 1   
    22   20   23 1   
    23   20   25 1   
    24   21   22 2   
    25   21   29 1   
    26   23   26 1   
    27   23   27 1   
    28   23   28 1   
    29   29   30 1   
    30   29   37 1   
    31   30   31 1   
    32   30   33 1   
    33   30   38 1   
    34   31   32 2   
    35   31   41 1   
    36   33   34 1   
    37   33   39 1   
    38   33   40 1   
    39   34   35 1   
    40   34   36 1   
    41   41   42 1   
    42   41   45 1   
    43   42   43 1   
    44   42   46 1   
    45   42   47 1   
    46   43   44 2   
    47   43   48 1   
    48   48   49 1   
    49   48   56 1   
    50   49   50 1   
    51   49   52 1   
    52   49   57 1   
    53   50   51 2   
    54   50   62 1   
    55   52   53 1   
    56   52   58 1   
    57   52   59 1   
    58   53   54 1   
    59   53   55 2   
    60   54   60 1   
    61   54   61 1   
    62   62   63 1   
    63   62   66 1   
    64   63   64 1   
    65   63   67 1   
    66   63   68 1   
    67   64   65 2   
    68   64   69 1   
    69   69   70 1   
    70   69   76 1   
    71   70   71 1   
    72   70   73 1   
    73   70   77 1   
    74   71   72 2   
    75   71   83 1   
    76   73   74 1   
    77   73   75 1   
    78   73   78 1   
    79   74   80 1   
    80   74   81 1   
    81   74   82 1   
    82   75   79 1   
    83   83   84 1   
    84   83   91 1   
    85   84   85 1   
    86   84   87 1   
    87   84   92 1   
    88   85   86 2   
    89   85  102 1   
    90   87   88 1   
    91   87   89 1   
    92   87   93 1   
    93   88   90 1   
    94   88   94 1   
    95   88   95 1   
    96   89   96 1   
    97   89   97 1   
    98   89   98 1   
    99   90   99 1   
   100   90  100 1   
   101   90  101 1   
   102  102  103 1   
   103  102  110 1   
   104  103  104 1   
   105  103  106 1   
   106  103  111 1   
   107  104  105 2   
   108  104  114 1   
   109  106  107 1   
   110  106  112 1   
   111  106  113 1   
   112  107  108 1   
   113  107  109 1   
   114  114  115 1   
   115  114  125 1   
   116  115  116 1   
   117  115  118 1   
   118  115  126 1   
   119  116  117 2   
   120  116  134 1   
   121  118  119 1   
   122  118  127 1   
   123  118  128 1   
   124  119  120 ar  
   125  119  121 ar  
   126  120  122 ar  
   127  120  129 1   
   128  121  123 ar  
   129  121  130 1   
   130  122  124 ar  
   131  122  131 1   
   132  123  124 ar  
   133  123  132 1   
   134  124  133 1   
   135  134  135 1   
   136  134  140 1   
   137  135  136 1   
   138  135  138 1   
   139  135  141 1   
   140  136  137 2   
   141  136  148 1   
   142  138  139 1   
   143  138  142 1   
   144  138  143 1   
   145  139  140 1   
   146  139  144 1   
   147  139  145 1   
   148  140  146 1   
   149  140  147 1   
   150  148  149 1   
   151  148  157 1   
   152  149  150 1   
   153  149  152 1   
   154  149  158 1   
   155  150  151 2   
   156  150  163 1   
   157  152  153 1   
   158  152  159 1   
   159  152  160 1   
   160  153  154 1   
   161  153  161 1   
   162  153  162 1   
   163  154  155 1   
   164  154  156 1   
   165  163  164 1   
   166  163  168 1   
   167  164  165 1   
   168  164  166 1   
   169  164  167 1   
   170  170  171 1   
   171  170  172 1   
   172  173  174 1   
   173  173  175 1   
@<TRIPOS>SUBSTRUCTURE
     1 MOL         1 TEMP              0 ****  ****    0 ROOT
