@<TRIPOS>MOLECULE
MOL
  192   187     1     0     0
SMALL
resp


@<TRIPOS>ATOM
      1 C1          1.5720    4.3240    3.1960 c3        1 MOL     -0.169073
      2 C2          0.6960    4.3660    1.9440 c         1 MOL      0.968254
      3 O1          0.1490    3.3980    1.5400 o         1 MOL     -0.601757
      4 H1          0.9990    4.6800    4.0530 hc        1 MOL      0.014569
      5 H2          1.8990    3.3000    3.3790 hc        1 MOL      0.014569
      6 H3          2.4430    4.9640    3.0530 hc        1 MOL      0.014569
      7 N1          0.4870    5.4580    1.1560 n         1 MOL     -0.844122
      8 C3         -0.3320    5.5090   -0.0620 c3        1 MOL      0.060199
      9 C4         -1.7610    5.0620    0.0750 c         1 MOL      0.531821
     10 O2         -2.4080    4.8390   -0.9680 o         1 MOL     -0.502653
     11 C5          0.4310    4.8670   -1.1940 c3        1 MOL     -0.536199
     12 C6          1.9480    5.2640   -1.3240 c         1 MOL      1.077310
     13 O3          2.3700    6.3670   -0.8560 o         1 MOL     -0.890706
     14 O4          2.7480    4.4220   -1.8010 o         1 MOL     -0.890706
     15 H4          0.8100    6.3710    1.4500 hn        1 MOL      0.333893
     16 H5         -0.4160    6.5590   -0.3480 h1        1 MOL      0.134759
     17 H6         -0.0890    5.1310   -2.1160 hc        1 MOL      0.189621
     18 H7          0.4280    3.8020   -0.9800 hc        1 MOL      0.189621
     19 N2         -2.3230    5.0020    1.3080 n         1 MOL     -0.183228
     20 C7         -3.7280    5.0650    1.5070 c3        1 MOL     -0.622495
     21 C8         -4.4540    6.0370    0.5640 c         1 MOL      0.590457
     22 O5         -3.9140    7.1280    0.2880 o         1 MOL     -0.566393
     23 C9         -4.0670    5.4050    2.9860 c3        1 MOL      0.253122
     24 C10        -3.6300    6.8420    3.3550 c3        1 MOL      0.304272
     25 C11        -3.6560    4.3310    3.9710 c3        1 MOL     -0.268379
     26 C12        -4.1450    7.3810    4.7310 c3        1 MOL     -0.379154
     27 H8         -1.6610    5.3890    1.9770 hn        1 MOL      0.180112
     28 H9         -4.0190    4.0500    1.2140 h1        1 MOL      0.287282
     29 H10        -5.1520    5.4590    2.9850 hc        1 MOL      0.020193
     30 H11        -3.8760    7.5470    2.5720 hc        1 MOL     -0.047603
     31 H12        -2.5440    6.8510    3.4580 hc        1 MOL     -0.047603
     32 H13        -2.5760    4.1750    3.9310 hc        1 MOL      0.052637
     33 H14        -4.0170    4.5600    4.9730 hc        1 MOL      0.052637
     34 H15        -4.1860    3.4410    3.6460 hc        1 MOL      0.052637
     35 H16        -3.9710    6.6350    5.5030 hc        1 MOL      0.068634
     36 H17        -3.6070    8.3270    4.8260 hc        1 MOL      0.068634
     37 H18        -5.2190    7.5070    4.6220 hc        1 MOL      0.068634
     38 N3         -5.6550    5.7370    0.0050 n         1 MOL     -0.437678
     39 C13        -6.3670    4.4760    0.3100 c3        1 MOL      0.049233
     40 C14        -5.7140    3.3350   -0.5140 c         1 MOL      0.489430
     41 O6         -5.4130    2.2970    0.0910 o         1 MOL     -0.607699
     42 C15        -7.8240    4.6950   -0.1010 c3        1 MOL     -0.284267
     43 C16        -8.0790    5.4890   -1.3980 c         1 MOL      0.741188
     44 O7         -8.0510    4.8930   -2.5060 o         1 MOL     -0.724268
     45 O8         -8.2620    6.7170   -1.3270 o         1 MOL     -0.724268
     46 H19        -6.0290    6.3110   -0.7320 hn        1 MOL      0.288918
     47 H20        -6.3890    4.2680    1.3760 h1        1 MOL      0.077056
     48 H21        -8.3650    5.2100    0.6930 hc        1 MOL      0.054603
     49 H22        -8.4010    3.7700   -0.1320 hc        1 MOL      0.054603
     50 N4         -5.3160    3.5390   -1.7920 n         1 MOL     -0.084187
     51 C17        -4.6210    2.4750   -2.4930 c3        1 MOL     -0.307126
     52 C18        -5.5960    1.3030   -2.7950 c         1 MOL      0.573824
     53 O9         -6.8240    1.5420   -2.7260 o         1 MOL     -0.542670
     54 H23        -5.2950    4.4460   -2.2290 hn        1 MOL      0.258454
     55 H24        -3.7470    2.1740   -1.9260 h1        1 MOL      0.104911
     56 H25        -4.2590    2.8940   -3.4350 h1        1 MOL      0.104911
     57 N5         -5.1160    0.0940   -2.9000 n         1 MOL     -0.417207
     58 C19        -5.8760   -1.1510   -3.0900 c3        1 MOL      0.036708
     59 C20        -6.5030   -1.8070   -1.9170 c         1 MOL      0.379305
     60 O10        -7.4070   -2.6220   -2.0530 o         1 MOL     -0.536736
     61 C21        -4.9930   -2.2180   -3.7340 c3        1 MOL     -0.171344
     62 C22        -3.6130   -2.3510   -3.0410 c         1 MOL      0.711438
     63 O11        -2.6200   -1.8600   -3.5380 o         1 MOL     -0.677584
     64 O12        -3.6700   -2.7440   -1.8620 o         1 MOL     -0.677584
     65 H26        -4.1100    0.0630   -2.9130 hn        1 MOL      0.294375
     66 H27        -6.7370   -1.0410   -3.7520 h1        1 MOL      0.098401
     67 H28        -4.7660   -1.9810   -4.7780 hc        1 MOL      0.012933
     68 H29        -5.4440   -3.2000   -3.6870 hc        1 MOL      0.012933
     69 N6         -6.1170   -1.4710   -0.6550 n         1 MOL     -0.049780
     70 C23        -6.7030   -2.0720    0.5360 c3        1 MOL     -0.499979
     71 C24        -6.3480   -3.5510    0.7470 c         1 MOL      0.564376
     72 O13        -6.9340   -4.1790    1.6310 o         1 MOL     -0.609372
     73 H30        -5.3720   -0.8090   -0.5510 hn        1 MOL      0.240337
     74 H31        -7.7830   -2.1280    0.4380 h1        1 MOL      0.180348
     75 H32        -6.3340   -1.5460    1.4250 h1        1 MOL      0.180348
     76 N7         -5.4440   -4.1330   -0.0830 n         1 MOL      0.040692
     77 C25        -4.7920   -5.4770   -0.0060 c3        1 MOL     -0.173714
     78 C26        -3.9460   -5.8330    1.2150 c         1 MOL      0.490011
     79 O14        -3.5470   -7.0020    1.3860 o         1 MOL     -0.524072
     80 C27        -5.6890   -6.5650   -0.6030 c3        1 MOL      0.089778
     81 C28        -6.4300   -6.2030   -1.9400 c3        1 MOL     -0.259008
     82 C29        -7.1190   -7.4270   -2.5530 c         1 MOL      0.641203
     83 N8         -8.3110   -7.2100   -3.0170 n         1 MOL     -0.762124
     84 O15        -6.6430   -8.5570   -2.4440 o         1 MOL     -0.569858
     85 H33        -4.8880   -3.5000   -0.6420 hn        1 MOL     -0.003562
     86 H34        -4.0860   -5.2660   -0.8170 h1        1 MOL      0.128007
     87 H35        -6.4400   -6.8840    0.1170 hc        1 MOL      0.014647
     88 H36        -5.0380   -7.4330   -0.6910 hc        1 MOL      0.014647
     89 H37        -5.6770   -5.7310   -2.5800 hc        1 MOL      0.091911
     90 H38        -7.0530   -5.3470   -1.7040 hc        1 MOL      0.091911
     91 H39        -8.7660   -6.3190   -2.8890 hn        1 MOL      0.343377
     92 H40        -8.9450   -7.9890   -3.1340 hn        1 MOL      0.343377
     93 N9         -3.7310   -4.8490    2.0690 n         1 MOL     -0.385845
     94 C30        -2.9150   -5.0420    3.3330 c3        1 MOL     -0.000476
     95 C31        -1.5220   -4.3050    3.3370 c         1 MOL      0.501621
     96 O16        -0.7140   -4.8250    4.0570 o         1 MOL     -0.559200
     97 C32        -3.7370   -4.7340    4.5940 c3        1 MOL      0.209949
     98 C33        -4.4240   -3.3600    4.5390 c3        1 MOL     -0.293510
     99 C34        -4.7290   -5.8230    4.9030 c3        1 MOL     -0.293510
    100 H41        -4.1440   -3.9810    1.7840 hn        1 MOL      0.273524
    101 H42        -2.6380   -6.0930    3.3740 h1        1 MOL      0.118594
    102 H43        -3.1100   -4.8620    5.4720 hc        1 MOL     -0.008776
    103 H44        -5.0540   -3.1740    3.6730 hc        1 MOL      0.066318
    104 H45        -4.8470   -3.1780    5.5320 hc        1 MOL      0.066318
    105 H46        -3.6440   -2.6010    4.4540 hc        1 MOL      0.066318
    106 H47        -4.3100   -6.8380    4.8500 hc        1 MOL      0.066318
    107 H48        -5.1110   -5.6080    5.9050 hc        1 MOL      0.066318
    108 H49        -5.6040   -5.8310    4.2480 hc        1 MOL      0.066318
    109 N10        -1.2110   -3.3380    2.4670 n         1 MOL     -0.423689
    110 C35         0.0270   -2.6120    2.4890 c3        1 MOL      0.231905
    111 C36         0.9250   -2.7560    1.2300 c         1 MOL      0.654886
    112 O17         0.3800   -3.1840    0.1850 o         1 MOL     -0.579538
    113 C37        -0.3260   -1.1230    2.4880 c3        1 MOL     -0.231482
    114 C38         0.4770   -0.4930    3.5790 c         1 MOL      0.541710
    115 N11        -0.0610   -0.4330    4.7780 n         1 MOL     -0.714767
    116 O18         1.6090    0.0030    3.3100 o         1 MOL     -0.570327
    117 H50        -1.9210   -3.0120    1.8340 hn        1 MOL      0.246762
    118 H51         0.5760   -2.9630    3.3680 h1        1 MOL      0.029193
    119 H52        -1.3580   -1.0160    2.8420 hc        1 MOL      0.097879
    120 H53        -0.0950   -0.6470    1.5410 hc        1 MOL      0.097879
    121 H54        -0.9780   -0.8100    4.9600 hn        1 MOL      0.349659
    122 H55         0.4500    0.1070    5.4660 hn        1 MOL      0.349659
    123 N12         2.1450   -2.3940    1.3840 n         1 MOL     -0.673549
    124 C39         3.1990   -2.5430    0.3570 c3        1 MOL      0.199779
    125 C40         4.6060   -2.4660    0.7880 c         1 MOL      0.722129
    126 O19         4.8950   -1.8950    1.8640 o         1 MOL     -0.608261
    127 C41         3.0840   -1.6050   -0.8020 c3        1 MOL     -0.179048
    128 C42         3.2370   -2.2420   -2.1800 ca        1 MOL     -0.055637
    129 C43         4.4870   -2.2090   -2.8630 ca        1 MOL     -0.133784
    130 C44         2.2450   -3.1590   -2.6940 ca        1 MOL     -0.133784
    131 C45         4.7180   -2.9040   -4.1180 ca        1 MOL     -0.270039
    132 C46         2.5710   -3.9990   -3.8210 ca        1 MOL     -0.270039
    133 C47         3.7560   -3.7640   -4.5650 ca        1 MOL      0.377403
    134 O20         3.8330   -4.3460   -5.8350 oh        1 MOL     -0.561921
    135 H56         2.4700   -1.9870    2.2480 hn        1 MOL      0.338364
    136 H57         3.0910   -3.5450   -0.0570 h1        1 MOL      0.062419
    137 H58         3.8510   -0.8190   -0.7700 hc        1 MOL      0.118647
    138 H59         2.1240   -1.0970   -0.7090 hc        1 MOL      0.118647
    139 H60         5.2030   -1.5850   -2.3560 ha        1 MOL      0.197321
    140 H61         1.2510   -3.1620   -2.2860 ha        1 MOL      0.197321
    141 H62         5.5440   -2.6920   -4.7800 ha        1 MOL      0.149279
    142 H63         1.7730   -4.5500   -4.3020 ha        1 MOL      0.149279
    143 H64         4.5800   -4.1690   -6.4130 ho        1 MOL      0.384191
    144 N13         5.4780   -3.2350    0.1090 n         1 MOL     -0.836947
    145 C48         6.8920   -3.2330    0.3710 c3        1 MOL      0.219238
    146 C49         7.4770   -2.6400   -0.8870 c         1 MOL      0.627245
    147 O21         7.7360   -3.3490   -1.8970 o         1 MOL     -0.589361
    148 C50         7.4590   -4.6270    0.7590 c3        1 MOL      0.225934
    149 C51         8.9470   -4.5660    1.0200 c3        1 MOL     -0.283096
    150 C52         9.5610   -5.9560    1.1330 c         1 MOL      0.669900
    151 O22         9.8030   -6.3700    2.2680 o         1 MOL     -0.697543
    152 O23         9.7090   -6.6230    0.0410 o         1 MOL     -0.697543
    153 H65         5.1900   -3.7580   -0.7100 hn        1 MOL      0.398603
    154 H66         7.1130   -2.6700    1.2700 h1        1 MOL      0.079792
    155 H67         7.0950   -5.3370    0.0260 hc        1 MOL     -0.036841
    156 H68         7.0620   -4.9350    1.7300 hc        1 MOL     -0.036841
    157 H69         9.0530   -3.9860    1.9370 hc        1 MOL      0.046847
    158 H70         9.4410   -3.9270    0.2870 hc        1 MOL      0.046847
    159 N14         7.6090   -1.3400   -1.0320 n         1 MOL     -0.689269
    160 C53         7.3280   -0.2210   -0.1180 c3        1 MOL      0.047000
    161 C54         8.1800   -0.2620    1.1860 c         1 MOL      0.509522
    162 O24         9.2910   -0.8290    1.2520 o         1 MOL     -0.525013
    163 C55         7.6120    1.1040   -0.8080 c3        1 MOL      0.306114
    164 C56         6.4260    1.3720   -1.6070 c3        1 MOL      0.115196
    165 C57         6.6780    2.6280   -2.4390 c         1 MOL      0.576989
    166 O25         7.1610    2.3790   -3.5910 o         1 MOL     -0.664401
    167 O26         6.4960    3.8220   -2.0220 o         1 MOL     -0.664401
    168 H71         8.1640   -1.0580   -1.8310 hn        1 MOL      0.379236
    169 H72         6.2940   -0.3330    0.1860 h1        1 MOL      0.037670
    170 H73         8.4810    1.0230   -1.4550 hc        1 MOL     -0.135085
    171 H74         7.6100    1.8630   -0.0260 hc        1 MOL     -0.135085
    172 H75         5.5910    1.5410   -0.9270 hc        1 MOL     -0.093986
    173 H76         6.1430    0.5630   -2.2870 hc        1 MOL     -0.093986
    174 N15         7.5260    0.2440    2.2200 n         1 MOL     -0.251915
    175 C58         8.0540    0.2830    3.6180 c3        1 MOL     -0.681014
    176 H77         7.3980    0.8940    4.2370 h1        1 MOL      0.224905
    177 H78         8.0940   -0.7300    4.0200 h1        1 MOL      0.224905
    178 H79         9.0560    0.7140    3.6170 h1        1 MOL      0.224905
    179 H80         6.6780    0.7540    2.0660 hn        1 MOL      0.265628
    180 Ca1         4.9820    5.6250   -0.8590 Ca        1 MOL      1.686333
    181 O27         5.9930    8.0600   -1.3730 oh        1 MOL     -0.854697
    182 H81         5.4000    8.4840   -1.9910 ho        1 MOL      0.414639
    183 H82         6.3540    8.7770   -0.8480 ho        1 MOL      0.414639
    184 O28         5.1070    5.7680   -3.5090 oh        1 MOL     -0.854697
    185 H83         4.5050    5.5040   -4.2080 ho        1 MOL      0.414639
    186 H84         5.9260    5.3180   -3.7150 ho        1 MOL      0.414639
    187 O29         7.3720    5.7190    0.2530 oh        1 MOL     -0.854697
    188 H85         7.6620    5.4770    1.1370 ho        1 MOL      0.414639
    189 H86         8.1620    5.6760   -0.2730 ho        1 MOL      0.414639
    190 O30         4.4710    3.8700    1.0740 oh        1 MOL     -0.854697
    191 H87         4.1410    2.9880    0.9290 ho        1 MOL      0.414639
    192 H88         5.1550    3.7660    1.7340 ho        1 MOL      0.414639
@<TRIPOS>BOND
     1    1    2 1   
     2    1    4 1   
     3    1    5 1   
     4    1    6 1   
     5    2    3 2   
     6    2    7 1   
     7    7    8 1   
     8    7   15 1   
     9    8    9 1   
    10    8   11 1   
    11    8   16 1   
    12    9   10 2   
    13    9   19 1   
    14   11   12 1   
    15   11   17 1   
    16   11   18 1   
    17   12   13 1   
    18   12   14 1   
    19   19   20 1   
    20   19   27 1   
    21   20   21 1   
    22   20   23 1   
    23   20   28 1   
    24   21   22 2   
    25   21   38 1   
    26   23   24 1   
    27   23   25 1   
    28   23   29 1   
    29   24   26 1   
    30   24   30 1   
    31   24   31 1   
    32   25   32 1   
    33   25   33 1   
    34   25   34 1   
    35   26   35 1   
    36   26   36 1   
    37   26   37 1   
    38   38   39 1   
    39   38   46 1   
    40   39   40 1   
    41   39   42 1   
    42   39   47 1   
    43   40   41 2   
    44   40   50 1   
    45   42   43 1   
    46   42   48 1   
    47   42   49 1   
    48   43   44 1   
    49   43   45 1   
    50   50   51 1   
    51   50   54 1   
    52   51   52 1   
    53   51   55 1   
    54   51   56 1   
    55   52   53 2   
    56   52   57 1   
    57   57   58 1   
    58   57   65 1   
    59   58   59 1   
    60   58   61 1   
    61   58   66 1   
    62   59   60 2   
    63   59   69 1   
    64   61   62 1   
    65   61   67 1   
    66   61   68 1   
    67   62   63 1   
    68   62   64 1   
    69   69   70 1   
    70   69   73 1   
    71   70   71 1   
    72   70   74 1   
    73   70   75 1   
    74   71   72 2   
    75   71   76 1   
    76   76   77 1   
    77   76   85 1   
    78   77   78 1   
    79   77   80 1   
    80   77   86 1   
    81   78   79 2   
    82   78   93 1   
    83   80   81 1   
    84   80   87 1   
    85   80   88 1   
    86   81   82 1   
    87   81   89 1   
    88   81   90 1   
    89   82   83 1   
    90   82   84 2   
    91   83   91 1   
    92   83   92 1   
    93   93   94 1   
    94   93  100 1   
    95   94   95 1   
    96   94   97 1   
    97   94  101 1   
    98   95   96 2   
    99   95  109 1   
   100   97   98 1   
   101   97   99 1   
   102   97  102 1   
   103   98  103 1   
   104   98  104 1   
   105   98  105 1   
   106   99  106 1   
   107   99  107 1   
   108   99  108 1   
   109  109  110 1   
   110  109  117 1   
   111  110  111 1   
   112  110  113 1   
   113  110  118 1   
   114  111  112 2   
   115  111  123 1   
   116  113  114 1   
   117  113  119 1   
   118  113  120 1   
   119  114  115 1   
   120  114  116 2   
   121  115  121 1   
   122  115  122 1   
   123  123  124 1   
   124  123  135 1   
   125  124  125 1   
   126  124  127 1   
   127  124  136 1   
   128  125  126 2   
   129  125  144 1   
   130  127  128 1   
   131  127  137 1   
   132  127  138 1   
   133  128  129 ar  
   134  128  130 ar  
   135  129  131 ar  
   136  129  139 1   
   137  130  132 ar  
   138  130  140 1   
   139  131  133 ar  
   140  131  141 1   
   141  132  133 ar  
   142  132  142 1   
   143  133  134 1   
   144  134  143 1   
   145  144  145 1   
   146  144  153 1   
   147  145  146 1   
   148  145  148 1   
   149  145  154 1   
   150  146  147 2   
   151  146  159 1   
   152  148  149 1   
   153  148  155 1   
   154  148  156 1   
   155  149  150 1   
   156  149  157 1   
   157  149  158 1   
   158  150  151 1   
   159  150  152 1   
   160  159  160 1   
   161  159  168 1   
   162  160  161 1   
   163  160  163 1   
   164  160  169 1   
   165  161  162 2   
   166  161  174 1   
   167  163  164 1   
   168  163  170 1   
   169  163  171 1   
   170  164  165 1   
   171  164  172 1   
   172  164  173 1   
   173  165  166 1   
   174  165  167 1   
   175  174  175 1   
   176  174  179 1   
   177  175  176 1   
   178  175  177 1   
   179  175  178 1   
   180  181  182 1   
   181  181  183 1   
   182  184  185 1   
   183  184  186 1   
   184  187  188 1   
   185  187  189 1   
   186  190  191 1   
   187  190  192 1   
@<TRIPOS>SUBSTRUCTURE
     1 MOL         1 TEMP              0 ****  ****    0 ROOT
