@<TRIPOS>MOLECULE
MOL
  189   185     1     0     0
SMALL
resp


@<TRIPOS>ATOM
      1 C1          4.6880    3.9330   -3.7610 c3        1 MOL     -0.372578
      2 C2          5.4750    3.3850   -2.5540 c         1 MOL      0.772363
      3 O1          4.8880    3.2820   -1.5090 o         1 MOL     -0.630250
      4 H1          4.2800    3.1010   -4.3360 hc        1 MOL      0.089118
      5 H2          3.8730    4.5640   -3.4080 hc        1 MOL      0.089118
      6 H3          5.3540    4.5190   -4.3950 hc        1 MOL      0.089118
      7 N1          6.7670    3.0150   -2.7120 n         1 MOL     -0.644888
      8 C3          7.4320    1.9260   -1.8710 c3        1 MOL      0.270717
      9 C4          6.4800    0.7720   -1.4970 c         1 MOL      0.264757
     10 O2          6.0090    0.6120   -0.3200 o         1 MOL     -0.595291
     11 C5          8.1980    2.6060   -0.7160 c3        1 MOL     -0.146084
     12 C6          7.4070    3.6000    0.0870 c         1 MOL      0.843414
     13 O3          6.5000    3.2460    0.7800 o         1 MOL     -0.769906
     14 O4          7.8110    4.7720    0.1130 o         1 MOL     -0.769906
     15 H4          7.1260    3.0090   -3.6570 hn        1 MOL      0.295976
     16 H5          8.1530    1.4910   -2.5590 h1        1 MOL      0.031068
     17 H6          8.9580    3.2010   -1.2240 hc        1 MOL      0.014748
     18 H7          8.6070    1.7910   -0.1230 hc        1 MOL      0.014748
     19 N2          6.0710    0.0630   -2.5290 n         1 MOL     -0.263826
     20 C7          5.2640   -1.1380   -2.5970 c3        1 MOL      0.090071
     21 C8          5.9120   -2.3340   -1.9230 c         1 MOL      0.331483
     22 O5          6.3390   -3.2690   -2.5940 o         1 MOL     -0.557496
     23 C9          3.7460   -0.9900   -2.3210 c3        1 MOL      0.100579
     24 C10         2.9960   -2.2550   -2.7620 c3        1 MOL     -0.035009
     25 C11         3.2240    0.3660   -2.9540 c3        1 MOL     -0.058639
     26 C12         2.5750   -2.4390   -4.1730 c3        1 MOL     -0.174488
     27 H8          6.4680    0.2750   -3.4310 hn        1 MOL      0.225707
     28 H9          5.2110   -1.4700   -3.6270 h1        1 MOL      0.021565
     29 H10         3.6610   -0.9580   -1.2400 hc        1 MOL     -0.206376
     30 H11         2.0980   -2.3190   -2.1550 hc        1 MOL      0.071820
     31 H12         3.4770   -3.1490   -2.3680 hc        1 MOL      0.071820
     32 H13         2.1730    0.5170   -2.7140 hc        1 MOL      0.010797
     33 H14         3.8220    1.1910   -2.5940 hc        1 MOL      0.010797
     34 H15         3.2820    0.3330   -4.0440 hc        1 MOL      0.010797
     35 H16         3.3820   -2.3570   -4.9120 hc        1 MOL      0.034118
     36 H17         2.1180   -3.4210   -4.3450 hc        1 MOL      0.034118
     37 H18         1.8610   -1.6660   -4.4340 hc        1 MOL      0.034118
     38 N3          5.9860   -2.3840   -0.6110 n         1 MOL      0.023731
     39 C13         6.7390   -3.3860    0.0860 c3        1 MOL      0.066359
     40 C14         5.9840   -4.7020    0.4160 c         1 MOL      0.513351
     41 O6          6.4510   -5.7950    0.0360 o         1 MOL     -0.587813
     42 C15         7.3460   -2.7430    1.2950 c3        1 MOL     -0.253663
     43 C16         8.2720   -1.5810    0.8220 c         1 MOL      0.788169
     44 O7          8.5210   -0.7790    1.7770 o         1 MOL     -0.720356
     45 O8          9.0030   -1.5980   -0.2030 o         1 MOL     -0.720356
     46 H19         5.6040   -1.6440   -0.0360 hn        1 MOL      0.190599
     47 H20         7.6240   -3.5820   -0.5180 h1        1 MOL      0.028505
     48 H21         7.9850   -3.4850    1.7680 hc        1 MOL      0.060168
     49 H22         6.5270   -2.3550    1.9100 hc        1 MOL      0.060168
     50 N4          4.7520   -4.7930    0.9790 n         1 MOL     -0.477274
     51 C17         4.0090   -3.6710    1.4370 c3        1 MOL      0.175959
     52 C18         2.6420   -3.9570    2.0610 c         1 MOL      0.635930
     53 O9          2.0600   -4.9950    1.8270 o         1 MOL     -0.587915
     54 H23         4.3430   -5.6740    1.2590 hn        1 MOL      0.293796
     55 H24         3.8570   -3.0090    0.5840 h1        1 MOL     -0.052240
     56 H25         4.5980   -3.1700    2.2020 h1        1 MOL     -0.052240
     57 N5          2.0320   -3.1190    2.9140 n         1 MOL     -0.472901
     58 C19         2.3790   -1.6750    3.1180 c3        1 MOL      0.023453
     59 C20         2.5020   -0.8470    1.8390 c         1 MOL      0.318680
     60 O10         3.5460   -0.3420    1.5270 o         1 MOL     -0.409718
     61 C21         3.4050   -1.3850    4.2690 c3        1 MOL     -0.466103
     62 C22         3.1800   -2.4350    5.3870 c         1 MOL      0.768867
     63 O11         2.2870   -2.2560    6.2590 o         1 MOL     -0.729919
     64 O12         3.9580   -3.4500    5.4840 o         1 MOL     -0.729919
     65 H26         1.1690   -3.4510    3.3200 hn        1 MOL      0.315516
     66 H27         1.4480   -1.2420    3.4780 h1        1 MOL      0.106862
     67 H28         3.3080   -0.3450    4.5610 hc        1 MOL      0.139888
     68 H29         4.3180   -1.6730    3.7560 hc        1 MOL      0.139888
     69 N6          1.5450   -0.8610    0.8920 n         1 MOL     -0.262237
     70 C23         0.1090   -1.3460    0.9000 c3        1 MOL     -0.083105
     71 C24        -0.2330   -2.7650    0.5010 c         1 MOL      0.475054
     72 O13         0.5340   -3.4320   -0.2340 o         1 MOL     -0.489252
     73 H30         1.8480   -0.4150    0.0400 hn        1 MOL      0.342032
     74 H31        -0.4360   -0.7220    0.1950 h1        1 MOL      0.063659
     75 H32        -0.2360   -1.2290    1.9340 h1        1 MOL      0.063659
     76 N7         -1.4610   -3.2620    0.8460 n         1 MOL     -0.389164
     77 C25        -1.9880   -4.5710    0.3060 c3        1 MOL      0.022769
     78 C26        -2.7600   -4.5270   -1.0200 c         1 MOL      0.313892
     79 O14        -3.0360   -5.5760   -1.6460 o         1 MOL     -0.500057
     80 C27        -2.9270   -5.1550    1.4050 c3        1 MOL     -0.139235
     81 C28        -4.0350   -4.1560    1.9290 c3        1 MOL     -0.145607
     82 C29        -5.1040   -3.5900    0.9500 c         1 MOL      0.452835
     83 N8         -5.9390   -4.4610    0.3470 n         1 MOL     -0.629191
     84 O15        -5.1520   -2.4060    0.7600 o         1 MOL     -0.481163
     85 H33        -2.0530   -2.5450    1.2510 hn        1 MOL      0.243397
     86 H34        -1.1590   -5.2460    0.0960 h1        1 MOL      0.166581
     87 H35        -2.2860   -5.5180    2.2130 hc        1 MOL      0.070540
     88 H36        -3.4080   -6.0140    0.9250 hc        1 MOL      0.070540
     89 H37        -3.4920   -3.3400    2.4100 hc        1 MOL      0.079466
     90 H38        -4.5080   -4.6710    2.7640 hc        1 MOL      0.079466
     91 H39        -5.9710   -5.4010    0.7210 hn        1 MOL      0.327338
     92 H40        -6.7280   -4.1440   -0.1920 hn        1 MOL      0.327338
     93 N9         -2.9860   -3.2970   -1.5320 n         1 MOL     -0.058197
     94 C30        -3.3940   -3.0220   -2.8980 c3        1 MOL     -0.362962
     95 C31        -4.6180   -2.0970   -3.0980 c         1 MOL      0.553035
     96 O16        -4.9880   -1.8340   -4.2190 o         1 MOL     -0.544126
     97 C32        -2.2030   -2.5550   -3.7670 c3        1 MOL      0.336181
     98 C33        -0.9620   -3.5110   -3.8750 c3        1 MOL     -0.238444
     99 C34        -1.5890   -1.1930   -3.2740 c3        1 MOL     -0.238444
    100 H41        -2.8300   -2.5210   -0.8940 hn        1 MOL      0.248791
    101 H42        -3.5990   -3.9720   -3.3990 h1        1 MOL      0.154521
    102 H43        -2.6220   -2.3700   -4.7510 hc        1 MOL     -0.028593
    103 H44        -0.5000   -3.5590   -2.8930 hc        1 MOL      0.052582
    104 H45        -1.3670   -4.4600   -4.2080 hc        1 MOL      0.052582
    105 H46        -0.3560   -3.0180   -4.6370 hc        1 MOL      0.052582
    106 H47        -1.2810   -1.2470   -2.2310 hc        1 MOL      0.052582
    107 H48        -0.8440   -0.8230   -3.9790 hc        1 MOL      0.052582
    108 H49        -2.3070   -0.3720   -3.3340 hc        1 MOL      0.052582
    109 N10        -5.2840   -1.7070   -2.0310 n         1 MOL     -0.316588
    110 C35        -6.5000   -0.9420   -2.1340 c3        1 MOL      0.077240
    111 C36        -6.3620    0.5300   -1.5630 c         1 MOL      0.477410
    112 O17        -7.1520    1.4340   -1.8430 o         1 MOL     -0.542484
    113 C37        -7.6540   -1.6630   -1.4750 c3        1 MOL     -0.199427
    114 C38        -8.0720   -2.9230   -2.1910 c         1 MOL      0.671258
    115 N11        -8.4300   -2.8140   -3.4490 n         1 MOL     -0.776423
    116 O18        -8.1070   -4.0150   -1.6890 o         1 MOL     -0.565126
    117 H50        -5.0670   -2.0510   -1.1020 hn        1 MOL      0.218472
    118 H51        -6.7680   -0.8550   -3.1900 h1        1 MOL      0.041250
    119 H52        -8.5460   -1.0270   -1.4030 hc        1 MOL      0.075004
    120 H53        -7.4760   -1.9030   -0.4290 hc        1 MOL      0.075004
    121 H54        -8.2520   -2.0470   -4.0850 hn        1 MOL      0.357891
    122 H55        -8.7210   -3.6430   -3.9440 hn        1 MOL      0.357891
    123 N12        -5.4510    0.6460   -0.5660 n         1 MOL     -0.327837
    124 C39        -5.5380    1.7440    0.4110 c3        1 MOL      0.077022
    125 C40        -4.2130    2.5340    0.5160 c         1 MOL      0.459787
    126 O19        -3.1450    1.8940    0.5200 o         1 MOL     -0.407170
    127 C41        -6.1060    1.2860    1.7800 c3        1 MOL     -0.094739
    128 C42        -7.5790    0.9260    1.8730 ca        1 MOL      0.085531
    129 C43        -8.5320    1.7610    1.2690 ca        1 MOL     -0.148622
    130 C44        -7.9400   -0.1790    2.6100 ca        1 MOL     -0.148622
    131 C45        -9.9100    1.4360    1.4700 ca        1 MOL     -0.254316
    132 C46        -9.3080   -0.5410    2.8310 ca        1 MOL     -0.254316
    133 C47       -10.3120    0.2550    2.1870 ca        1 MOL      0.306420
    134 O20       -11.6360    0.1110    2.3910 oh        1 MOL     -0.508728
    135 H56        -4.7630   -0.0920   -0.4810 hn        1 MOL      0.135391
    136 H57        -6.1770    2.5040   -0.0220 h1        1 MOL      0.038638
    137 H58        -5.7950    1.9610    2.5760 hc        1 MOL      0.086486
    138 H59        -5.5590    0.3780    2.0300 hc        1 MOL      0.086486
    139 H60        -8.2710    2.6400    0.6960 ha        1 MOL      0.134188
    140 H61        -7.1650   -0.8720    2.8910 ha        1 MOL      0.134188
    141 H62       -10.6850    2.1260    1.1650 ha        1 MOL      0.137116
    142 H63        -9.6750   -1.3410    3.4580 ha        1 MOL      0.137116
    143 H64       -12.2680    0.6800    1.9540 ho        1 MOL      0.372246
    144 N13        -4.3370    3.8160    0.9050 n         1 MOL     -0.557216
    145 C48        -3.2080    4.8010    1.0580 c3        1 MOL      0.054669
    146 C49        -2.1280    5.0500    0.0110 c         1 MOL      0.162061
    147 O21        -1.4740    6.0960    0.0090 o         1 MOL     -0.491219
    148 C50        -2.5700    4.5730    2.3790 c3        1 MOL      0.299798
    149 C51        -3.5680    4.5930    3.5270 c3        1 MOL     -0.560582
    150 C52        -2.8330    4.6270    4.8580 c         1 MOL      0.784408
    151 O22        -2.0720    3.7220    5.2470 o         1 MOL     -0.735439
    152 O23        -3.0600    5.5590    5.7090 o         1 MOL     -0.735439
    153 H65        -5.2440    4.2090    1.1130 hn        1 MOL      0.320362
    154 H66        -3.7530    5.7430    1.0840 h1        1 MOL      0.075979
    155 H67        -1.8280    5.3590    2.5220 hc        1 MOL     -0.005162
    156 H68        -2.0410    3.6230    2.3370 hc        1 MOL     -0.005162
    157 H69        -4.1070    3.6530    3.4100 hc        1 MOL      0.089402
    158 H70        -4.1370    5.4970    3.2770 hc        1 MOL      0.089402
    159 N14        -1.8350    4.0800   -0.8510 n         1 MOL      0.021527
    160 C53        -0.7550    4.1620   -1.8450 c3        1 MOL     -0.231342
    161 C54        -1.2470    4.9950   -3.1000 c         1 MOL      0.509116
    162 O24        -0.3760    5.4080   -3.8290 o         1 MOL     -0.520626
    163 C55        -0.2860    2.7890   -2.2820 c3        1 MOL     -0.001614
    164 C56        -0.0320    1.6550   -1.1910 c3        1 MOL      0.383181
    165 C57         0.9570    2.1860   -0.1370 c         1 MOL      0.414146
    166 O25         2.1220    1.8000   -0.3810 o         1 MOL     -0.593971
    167 O26         0.5760    2.8680    0.8900 o         1 MOL     -0.593971
    168 H71        -2.2860    3.1990   -0.6870 hn        1 MOL      0.110609
    169 H72         0.0360    4.6500   -1.2750 h1        1 MOL      0.189040
    170 H73         0.6650    2.9930   -2.7680 hc        1 MOL     -0.001177
    171 H74        -1.0270    2.3400   -2.9400 hc        1 MOL     -0.001177
    172 H75         0.3170    0.7590   -1.7040 hc        1 MOL     -0.152230
    173 H76        -0.9280    1.3080   -0.6660 hc        1 MOL     -0.152230
    174 N15        -2.5560    5.1660   -3.4000 n         1 MOL     -0.247165
    175 C58        -3.0310    6.0400   -4.5140 c3        1 MOL     -0.252830
    176 H77        -4.0040    5.6910   -4.8590 h1        1 MOL      0.105949
    177 H78        -3.1190    7.0670   -4.1580 h1        1 MOL      0.105949
    178 H79        -2.3190    6.0000   -5.3380 h1        1 MOL      0.105949
    179 H80        -3.2570    4.6950   -2.8480 hn        1 MOL      0.210595
    180 Ca1         4.2450    2.1800    1.0050 Ca        1 MOL      1.797717
    181 O27         5.3930    1.4460    3.5440 oh        1 MOL     -0.906444
    182 H81         5.4410    1.8590    4.3990 ho        1 MOL      0.437652
    183 H82         6.0720    0.7730    3.5560 ho        1 MOL      0.437652
    184 O28         3.3890    4.6600    0.7910 oh        1 MOL     -0.906444
    185 H83         3.9950    5.2490    0.3430 ho        1 MOL      0.437652
    186 H84         2.5280    5.0720    0.6870 ho        1 MOL      0.437652
    187 O29         2.3640    2.1180    2.8520 oh        1 MOL     -0.906444
    188 H85         1.5600    2.4270    2.4240 ho        1 MOL      0.437652
    189 H86         2.0930    1.9410    3.7520 ho        1 MOL      0.437652
@<TRIPOS>BOND
     1    1    2 1   
     2    1    4 1   
     3    1    5 1   
     4    1    6 1   
     5    2    3 2   
     6    2    7 1   
     7    7    8 1   
     8    7   15 1   
     9    8    9 1   
    10    8   11 1   
    11    8   16 1   
    12    9   10 2   
    13    9   19 1   
    14   11   12 1   
    15   11   17 1   
    16   11   18 1   
    17   12   13 1   
    18   12   14 1   
    19   19   20 1   
    20   19   27 1   
    21   20   21 1   
    22   20   23 1   
    23   20   28 1   
    24   21   22 2   
    25   21   38 1   
    26   23   24 1   
    27   23   25 1   
    28   23   29 1   
    29   24   26 1   
    30   24   30 1   
    31   24   31 1   
    32   25   32 1   
    33   25   33 1   
    34   25   34 1   
    35   26   35 1   
    36   26   36 1   
    37   26   37 1   
    38   38   39 1   
    39   38   46 1   
    40   39   40 1   
    41   39   42 1   
    42   39   47 1   
    43   40   41 2   
    44   40   50 1   
    45   42   43 1   
    46   42   48 1   
    47   42   49 1   
    48   43   44 1   
    49   43   45 1   
    50   50   51 1   
    51   50   54 1   
    52   51   52 1   
    53   51   55 1   
    54   51   56 1   
    55   52   53 2   
    56   52   57 1   
    57   57   58 1   
    58   57   65 1   
    59   58   59 1   
    60   58   61 1   
    61   58   66 1   
    62   59   60 2   
    63   59   69 1   
    64   61   62 1   
    65   61   67 1   
    66   61   68 1   
    67   62   63 1   
    68   62   64 1   
    69   69   70 1   
    70   69   73 1   
    71   70   71 1   
    72   70   74 1   
    73   70   75 1   
    74   71   72 2   
    75   71   76 1   
    76   76   77 1   
    77   76   85 1   
    78   77   78 1   
    79   77   80 1   
    80   77   86 1   
    81   78   79 2   
    82   78   93 1   
    83   80   81 1   
    84   80   87 1   
    85   80   88 1   
    86   81   82 1   
    87   81   89 1   
    88   81   90 1   
    89   82   83 1   
    90   82   84 2   
    91   83   91 1   
    92   83   92 1   
    93   93   94 1   
    94   93  100 1   
    95   94   95 1   
    96   94   97 1   
    97   94  101 1   
    98   95   96 2   
    99   95  109 1   
   100   97   98 1   
   101   97   99 1   
   102   97  102 1   
   103   98  103 1   
   104   98  104 1   
   105   98  105 1   
   106   99  106 1   
   107   99  107 1   
   108   99  108 1   
   109  109  110 1   
   110  109  117 1   
   111  110  111 1   
   112  110  113 1   
   113  110  118 1   
   114  111  112 2   
   115  111  123 1   
   116  113  114 1   
   117  113  119 1   
   118  113  120 1   
   119  114  115 1   
   120  114  116 2   
   121  115  121 1   
   122  115  122 1   
   123  123  124 1   
   124  123  135 1   
   125  124  125 1   
   126  124  127 1   
   127  124  136 1   
   128  125  126 2   
   129  125  144 1   
   130  127  128 1   
   131  127  137 1   
   132  127  138 1   
   133  128  129 ar  
   134  128  130 ar  
   135  129  131 ar  
   136  129  139 1   
   137  130  132 ar  
   138  130  140 1   
   139  131  133 ar  
   140  131  141 1   
   141  132  133 ar  
   142  132  142 1   
   143  133  134 1   
   144  134  143 1   
   145  144  145 1   
   146  144  153 1   
   147  145  146 1   
   148  145  148 1   
   149  145  154 1   
   150  146  147 2   
   151  146  159 1   
   152  148  149 1   
   153  148  155 1   
   154  148  156 1   
   155  149  150 1   
   156  149  157 1   
   157  149  158 1   
   158  150  151 1   
   159  150  152 1   
   160  159  160 1   
   161  159  168 1   
   162  160  161 1   
   163  160  163 1   
   164  160  169 1   
   165  161  162 2   
   166  161  174 1   
   167  163  164 1   
   168  163  170 1   
   169  163  171 1   
   170  164  165 1   
   171  164  172 1   
   172  164  173 1   
   173  165  166 1   
   174  165  167 1   
   175  174  175 1   
   176  174  179 1   
   177  175  176 1   
   178  175  177 1   
   179  175  178 1   
   180  181  182 1   
   181  181  183 1   
   182  184  185 1   
   183  184  186 1   
   184  187  188 1   
   185  187  189 1   
@<TRIPOS>SUBSTRUCTURE
     1 MOL         1 TEMP              0 ****  ****    0 ROOT
