@<TRIPOS>MOLECULE
MOL
  178   175     1     0     0
SMALL
resp


@<TRIPOS>ATOM
      1 C1         -7.8960    7.9750    1.6430 c3        1 MOL     -0.392002
      2 C2         -8.7330    7.0180    0.7450 c         1 MOL      0.675256
      3 O1         -9.0710    7.3910   -0.3910 o         1 MOL     -0.569658
      4 H1         -7.1060    7.4100    2.1380 hc        1 MOL      0.093708
      5 H2         -7.4510    8.7560    1.0270 hc        1 MOL      0.093708
      6 H3         -8.5430    8.4280    2.3940 hc        1 MOL      0.093708
      7 N1         -9.0180    5.7630    1.1760 n         1 MOL     -0.544629
      8 C3         -9.7530    4.8050    0.2860 c3        1 MOL      0.165297
      9 C4         -8.8900    3.9960   -0.6430 c         1 MOL      0.489066
     10 O2         -9.3150    3.4070   -1.6330 o         1 MOL     -0.481440
     11 C5        -10.5000    3.8400    1.2010 c3        1 MOL     -0.234132
     12 C6        -11.5120    3.0790    0.3960 c         1 MOL      0.662733
     13 O3        -12.4840    3.7040   -0.0920 o         1 MOL     -0.709039
     14 O4        -11.3450    1.8440    0.1690 o         1 MOL     -0.709039
     15 H4         -8.7280    5.4260    2.0890 hn        1 MOL      0.296791
     16 H5        -10.4510    5.4250   -0.2740 h1        1 MOL      0.077329
     17 H6        -11.0390    4.4990    1.8850 hc        1 MOL      0.025073
     18 H7         -9.8760    3.2080    1.8290 hc        1 MOL      0.025073
     19 N2         -7.6040    3.7760   -0.2500 n         1 MOL     -0.432522
     20 C7         -6.5890    3.0530   -0.9820 c3        1 MOL      0.101534
     21 C8         -5.5800    2.5460    0.0450 c         1 MOL      0.687516
     22 O5         -5.0580    3.2540    0.8570 o         1 MOL     -0.570131
     23 C9         -6.0880    3.9450   -2.0750 c3        1 MOL     -0.374060
     24 H8         -7.3210    4.1130    0.6690 hn        1 MOL      0.216230
     25 H9         -6.9960    2.1610   -1.4570 h1        1 MOL      0.090933
     26 H10        -5.1750    3.5330   -2.4960 hc        1 MOL      0.111535
     27 H11        -6.8100    3.7980   -2.8870 hc        1 MOL      0.111535
     28 H12        -6.1310    4.9580   -1.6640 hc        1 MOL      0.111535
     29 N3         -5.2060    1.2570    0.1500 n         1 MOL     -0.593875
     30 C10        -5.6490    0.2200   -0.7850 c3        1 MOL      0.077343
     31 C11        -5.6380   -1.1950   -0.2510 c         1 MOL      0.546863
     32 O6         -4.7420   -1.4750    0.5310 o         1 MOL     -0.513382
     33 C12        -4.9780    0.2270   -2.2150 c3        1 MOL     -0.330116
     34 C13        -3.4470    0.1810   -2.2070 c         1 MOL      0.888493
     35 O7         -2.9460    0.1990   -3.3550 o         1 MOL     -0.745276
     36 O8         -2.6910    0.1180   -1.1700 o         1 MOL     -0.745276
     37 H13        -4.4480    1.1060    0.8000 hn        1 MOL      0.342454
     38 H14        -6.7200    0.2830   -0.9940 h1        1 MOL      0.032794
     39 H15        -5.1590    1.1890   -2.6840 hc        1 MOL      0.076458
     40 H16        -5.3210   -0.5560   -2.8960 hc        1 MOL      0.076458
     41 N4         -6.5390   -2.0880   -0.5510 n         1 MOL     -0.442108
     42 C14        -6.8090   -3.4100    0.0890 c3        1 MOL      0.029961
     43 C15        -6.8000   -4.5200   -1.0290 c         1 MOL      0.564447
     44 O9         -7.9010   -5.0530   -1.3110 o         1 MOL     -0.524720
     45 H17        -7.3280   -1.7260   -1.0620 hn        1 MOL      0.318798
     46 H18        -7.8430   -3.5270    0.4120 h1        1 MOL      0.056971
     47 H19        -6.1140   -3.6150    0.9010 h1        1 MOL      0.056971
     48 N5         -5.5920   -4.7790   -1.6170 n         1 MOL     -0.678744
     49 C16        -4.2850   -4.4350   -1.1660 c3        1 MOL      0.438490
     50 C17        -3.8770   -4.9520    0.2150 c         1 MOL      0.378685
     51 O10        -3.9410   -6.1820    0.4560 o         1 MOL     -0.550259
     52 C18        -3.2570   -4.8580   -2.2730 c3        1 MOL     -0.277840
     53 C19        -1.8610   -4.2280   -2.0320 c         1 MOL      0.534688
     54 N6         -0.8720   -4.7210   -2.6870 n         1 MOL     -0.546786
     55 O11        -1.6180   -3.4080   -1.2000 o         1 MOL     -0.707909
     56 H20        -5.6920   -5.2490   -2.5070 hn        1 MOL      0.333273
     57 H21        -4.2610   -3.3540   -1.0880 h1        1 MOL     -0.025053
     58 H22        -3.5810   -4.4880   -3.2390 hc        1 MOL      0.084478
     59 H23        -2.9740   -5.9110   -2.3940 hc        1 MOL      0.084478
     60 H24        -0.9440   -5.2780   -3.5250 hn        1 MOL      0.298831
     61 H25         0.0860   -4.4480   -2.5040 hn        1 MOL      0.298831
     62 N7         -3.4570   -4.0540    1.1360 n         1 MOL      0.006566
     63 C20        -3.2590   -4.4030    2.5730 c3        1 MOL     -0.293547
     64 C21        -1.8770   -4.8590    2.8840 c         1 MOL      0.625967
     65 O12        -1.5540   -5.2280    4.0040 o         1 MOL     -0.591040
     66 H26        -3.6150   -3.0710    0.9990 hn        1 MOL      0.131807
     67 H27        -3.8980   -5.2260    2.8930 h1        1 MOL      0.108523
     68 H28        -3.5790   -3.5510    3.1760 h1        1 MOL      0.108523
     69 N8         -1.0190   -4.7710    1.8930 n         1 MOL     -0.474963
     70 C22         0.4190   -4.7810    2.0960 c3        1 MOL      0.071186
     71 C23         0.9410   -3.3610    1.7750 c         1 MOL      0.393997
     72 O13         0.4170   -2.5100    1.0280 o         1 MOL     -0.466634
     73 C24         1.0860   -5.8590    1.2270 c3        1 MOL      0.405588
     74 C25         0.7960   -7.2240    1.8050 c3        1 MOL     -0.358460
     75 O14         0.6190   -5.8280   -0.1240 oh        1 MOL     -0.644049
     76 H29        -1.3780   -4.5430    0.9870 hn        1 MOL      0.386019
     77 H30         0.6770   -4.9500    3.1400 h1        1 MOL      0.044184
     78 H31         2.1700   -5.7890    1.3560 h1        1 MOL     -0.007619
     79 H32         1.3350   -5.3470   -0.5480 ho        1 MOL      0.426390
     80 H33         1.2200   -7.3090    2.8040 hc        1 MOL      0.077394
     81 H34        -0.2640   -7.4460    1.8860 hc        1 MOL      0.077394
     82 H35         1.2480   -7.9720    1.1450 hc        1 MOL      0.077394
     83 N9          2.0560   -3.0910    2.4510 n         1 MOL     -0.246859
     84 C26         2.9690   -2.0080    2.3690 c3        1 MOL      0.138184
     85 C27         4.0400   -2.4930    1.3450 c         1 MOL      0.156352
     86 O15         4.7430   -3.5080    1.5650 o         1 MOL     -0.500295
     87 C28         3.6500   -1.4930    3.7320 c3        1 MOL      0.062159
     88 C29         4.8540   -0.5910    3.4730 c3        1 MOL      0.173079
     89 C30         2.5790   -0.7910    4.5570 c3        1 MOL     -0.227329
     90 C31         5.6470    0.0270    4.6320 c3        1 MOL     -0.401941
     91 H36         2.4260   -3.8060    3.0650 hn        1 MOL      0.204844
     92 H37         2.4710   -1.1510    1.9210 h1        1 MOL     -0.001600
     93 H38         3.9860   -2.3870    4.2700 hc        1 MOL      0.008010
     94 H39         4.5860    0.1860    2.7680 hc        1 MOL     -0.009552
     95 H40         5.5950   -1.2200    2.9860 hc        1 MOL     -0.009552
     96 H41         2.9150   -0.4370    5.5240 hc        1 MOL      0.050104
     97 H42         2.0900   -0.0440    3.9340 hc        1 MOL      0.050104
     98 H43         1.8350   -1.5730    4.7480 hc        1 MOL      0.050104
     99 H44         5.8960   -0.7560    5.3520 hc        1 MOL      0.093799
    100 H45         6.6190    0.3750    4.2810 hc        1 MOL      0.093799
    101 H46         5.1320    0.8850    5.0630 hc        1 MOL      0.093799
    102 N10         4.1560   -1.7510    0.1820 n         1 MOL      0.009004
    103 C32         4.6430   -2.4100   -1.0590 c3        1 MOL     -0.009303
    104 C33         5.9710   -1.6460   -1.4930 c         1 MOL      0.556247
    105 O16         6.4000   -1.8360   -2.5990 o         1 MOL     -0.552583
    106 C34         3.6150   -2.5290   -2.2010 c3        1 MOL     -0.233886
    107 C35         2.3670   -3.3650   -1.8580 c         1 MOL      0.793914
    108 O17         2.5090   -4.5580   -1.3700 o         1 MOL     -0.723838
    109 O18         1.2350   -2.8240   -2.0080 o         1 MOL     -0.723838
    110 H47         3.4870   -1.0070    0.0500 hn        1 MOL      0.091342
    111 H48         4.9570   -3.4230   -0.7960 h1        1 MOL      0.087849
    112 H49         4.0230   -2.8420   -3.1710 hc        1 MOL      0.068807
    113 H50         3.2410   -1.5340   -2.4740 hc        1 MOL      0.068807
    114 N11         6.4830   -0.6670   -0.7560 n         1 MOL     -0.509902
    115 C36         7.4790    0.3770   -1.1130 c3        1 MOL      0.403785
    116 C37         7.3420    1.7270   -0.4050 c         1 MOL      0.250016
    117 O19         7.2060    1.6570    0.8380 o         1 MOL     -0.499265
    118 C38         8.9520   -0.0640   -0.7480 c3        1 MOL     -0.255980
    119 C39         9.9570    0.9770   -1.1340 ca        1 MOL      0.096602
    120 C40        10.3550    1.9920   -0.1940 ca        1 MOL     -0.152924
    121 C41        10.4940    0.9580   -2.3960 ca        1 MOL     -0.152924
    122 C42        11.1140    3.0660   -0.6110 ca        1 MOL     -0.099875
    123 C43        11.2360    2.0200   -2.8240 ca        1 MOL     -0.099875
    124 C44        11.6090    3.1060   -1.9700 ca        1 MOL     -0.154745
    125 H51         6.0460   -0.4760    0.1300 hn        1 MOL      0.186485
    126 H52         7.4900    0.5400   -2.1910 h1        1 MOL     -0.047212
    127 H53         9.1740   -0.9610   -1.3230 hc        1 MOL      0.097893
    128 H54         8.8950   -0.3960    0.2880 hc        1 MOL      0.097893
    129 H55         9.8780    1.9460    0.7780 ha        1 MOL      0.119592
    130 H56        10.0950    0.2190   -3.0810 ha        1 MOL      0.119592
    131 H57        11.3920    3.8300    0.0970 ha        1 MOL      0.100836
    132 H58        11.5860    2.0340   -3.8470 ha        1 MOL      0.100836
    133 H59        12.2190    3.9010   -2.3620 ha        1 MOL      0.116003
    134 N12         7.2890    2.8520   -1.1600 n         1 MOL      0.026940
    135 C45         7.2440    4.1970   -0.6190 c3        1 MOL     -0.159402
    136 C46         5.9540    4.4960    0.1840 c         1 MOL      0.510522
    137 O20         5.8410    5.6770    0.5280 o         1 MOL     -0.561474
    138 C47         7.4860    5.0660   -1.8020 c3        1 MOL      0.068291
    139 C48         6.6280    4.3360   -2.8500 c3        1 MOL     -0.084503
    140 C49         7.0620    2.9130   -2.5410 c3        1 MOL     -0.092257
    141 H60         8.0140    4.3430    0.1270 h1        1 MOL      0.093697
    142 H61         7.1620    6.0970   -1.6520 hc        1 MOL      0.021922
    143 H62         8.5400    5.1300   -2.0890 hc        1 MOL      0.021922
    144 H63         5.5590    4.4640   -2.7110 hc        1 MOL      0.044136
    145 H64         6.9780    4.6310   -3.8390 hc        1 MOL      0.044136
    146 H65         6.1730    2.3120   -2.7590 h1        1 MOL      0.063417
    147 H66         7.9160    2.6760   -3.1710 h1        1 MOL      0.063417
    148 N13         5.0330    3.6120    0.4390 n         1 MOL     -0.298828
    149 C50         3.6430    3.9740    0.8870 c3        1 MOL      0.002154
    150 C51         3.6100    4.2930    2.4130 c         1 MOL      0.353443
    151 O21         2.5420    4.7560    2.8710 o         1 MOL     -0.479307
    152 C52         2.5550    3.1080    0.3890 c3        1 MOL     -0.387734
    153 C53         2.3920    1.7800    1.1260 c3        1 MOL     -0.174814
    154 C54         1.4050    0.8360    0.3270 c         1 MOL      0.803648
    155 O22         1.9140    0.0370   -0.5090 o         1 MOL     -0.723080
    156 O23         0.1710    0.8130    0.6910 o         1 MOL     -0.723080
    157 H67         5.2300    2.6490    0.1820 hn        1 MOL      0.264355
    158 H68         3.3530    4.9510    0.5020 h1        1 MOL      0.126778
    159 H69         2.6310    2.9390   -0.6780 hc        1 MOL      0.159373
    160 H70         1.6360    3.5960    0.7090 hc        1 MOL      0.159373
    161 H71         1.9100    1.9680    2.0860 hc        1 MOL      0.073790
    162 H72         3.3490    1.2960    1.3480 hc        1 MOL      0.073790
    163 N14         4.7180    4.1030    3.1710 n         1 MOL     -0.138149
    164 C55         4.8960    4.6710    4.5040 c3        1 MOL     -0.210610
    165 H73         5.7220    4.1670    5.0060 h1        1 MOL      0.094854
    166 H74         5.1170    5.7350    4.4190 h1        1 MOL      0.094854
    167 H75         3.9820    4.5340    5.0830 h1        1 MOL      0.094854
    168 H76         5.5340    3.7010    2.7320 hn        1 MOL      0.197405
    169 Ca1        -0.4830   -1.1480   -1.0510 Ca        1 MOL      1.737918
    170 O24        -2.1000   -1.4550    1.0970 oh        1 MOL     -0.856342
    171 H77        -1.8660   -0.8150    1.7730 ho        1 MOL      0.404294
    172 H78        -3.0400   -1.3370    0.9830 ho        1 MOL      0.404294
    173 O25        -0.7380   -1.3360   -3.7350 oh        1 MOL     -0.856342
    174 H79        -1.5660   -0.8710   -3.8260 ho        1 MOL      0.404294
    175 H80        -0.5860   -1.7370   -4.5920 ho        1 MOL      0.404294
    176 O26        -0.0100    1.3410   -2.3100 oh        1 MOL     -0.856342
    177 H81         0.7180    1.7090   -2.8060 ho        1 MOL      0.404294
    178 H82        -0.7350    1.9450   -2.4550 ho        1 MOL      0.404294
@<TRIPOS>BOND
     1    1    2 1   
     2    1    4 1   
     3    1    5 1   
     4    1    6 1   
     5    2    3 2   
     6    2    7 1   
     7    7    8 1   
     8    7   15 1   
     9    8    9 1   
    10    8   11 1   
    11    8   16 1   
    12    9   10 2   
    13    9   19 1   
    14   11   12 1   
    15   11   17 1   
    16   11   18 1   
    17   12   13 1   
    18   12   14 1   
    19   19   20 1   
    20   19   24 1   
    21   20   21 1   
    22   20   23 1   
    23   20   25 1   
    24   21   22 2   
    25   21   29 1   
    26   23   26 1   
    27   23   27 1   
    28   23   28 1   
    29   29   30 1   
    30   29   37 1   
    31   30   31 1   
    32   30   33 1   
    33   30   38 1   
    34   31   32 2   
    35   31   41 1   
    36   33   34 1   
    37   33   39 1   
    38   33   40 1   
    39   34   35 1   
    40   34   36 1   
    41   41   42 1   
    42   41   45 1   
    43   42   43 1   
    44   42   46 1   
    45   42   47 1   
    46   43   44 2   
    47   43   48 1   
    48   48   49 1   
    49   48   56 1   
    50   49   50 1   
    51   49   52 1   
    52   49   57 1   
    53   50   51 2   
    54   50   62 1   
    55   52   53 1   
    56   52   58 1   
    57   52   59 1   
    58   53   54 1   
    59   53   55 2   
    60   54   60 1   
    61   54   61 1   
    62   62   63 1   
    63   62   66 1   
    64   63   64 1   
    65   63   67 1   
    66   63   68 1   
    67   64   65 2   
    68   64   69 1   
    69   69   70 1   
    70   69   76 1   
    71   70   71 1   
    72   70   73 1   
    73   70   77 1   
    74   71   72 2   
    75   71   83 1   
    76   73   74 1   
    77   73   75 1   
    78   73   78 1   
    79   74   80 1   
    80   74   81 1   
    81   74   82 1   
    82   75   79 1   
    83   83   84 1   
    84   83   91 1   
    85   84   85 1   
    86   84   87 1   
    87   84   92 1   
    88   85   86 2   
    89   85  102 1   
    90   87   88 1   
    91   87   89 1   
    92   87   93 1   
    93   88   90 1   
    94   88   94 1   
    95   88   95 1   
    96   89   96 1   
    97   89   97 1   
    98   89   98 1   
    99   90   99 1   
   100   90  100 1   
   101   90  101 1   
   102  102  103 1   
   103  102  110 1   
   104  103  104 1   
   105  103  106 1   
   106  103  111 1   
   107  104  105 2   
   108  104  114 1   
   109  106  107 1   
   110  106  112 1   
   111  106  113 1   
   112  107  108 1   
   113  107  109 1   
   114  114  115 1   
   115  114  125 1   
   116  115  116 1   
   117  115  118 1   
   118  115  126 1   
   119  116  117 2   
   120  116  134 1   
   121  118  119 1   
   122  118  127 1   
   123  118  128 1   
   124  119  120 ar  
   125  119  121 ar  
   126  120  122 ar  
   127  120  129 1   
   128  121  123 ar  
   129  121  130 1   
   130  122  124 ar  
   131  122  131 1   
   132  123  124 ar  
   133  123  132 1   
   134  124  133 1   
   135  134  135 1   
   136  134  140 1   
   137  135  136 1   
   138  135  138 1   
   139  135  141 1   
   140  136  137 2   
   141  136  148 1   
   142  138  139 1   
   143  138  142 1   
   144  138  143 1   
   145  139  140 1   
   146  139  144 1   
   147  139  145 1   
   148  140  146 1   
   149  140  147 1   
   150  148  149 1   
   151  148  157 1   
   152  149  150 1   
   153  149  152 1   
   154  149  158 1   
   155  150  151 2   
   156  150  163 1   
   157  152  153 1   
   158  152  159 1   
   159  152  160 1   
   160  153  154 1   
   161  153  161 1   
   162  153  162 1   
   163  154  155 1   
   164  154  156 1   
   165  163  164 1   
   166  163  168 1   
   167  164  165 1   
   168  164  166 1   
   169  164  167 1   
   170  170  171 1   
   171  170  172 1   
   172  173  174 1   
   173  173  175 1   
   174  176  177 1   
   175  176  178 1   
@<TRIPOS>SUBSTRUCTURE
     1 MOL         1 TEMP              0 ****  ****    0 ROOT
