@<TRIPOS>MOLECULE
MOL
  178   175     1     0     0
SMALL
resp


@<TRIPOS>ATOM
      1 C1          3.7990   -2.1260    2.9670 c3        1 MOL     -0.251497
      2 C2          5.1210   -1.4280    2.6980 c         1 MOL      0.650754
      3 O1          5.0900   -0.4480    1.8970 o         1 MOL     -0.572458
      4 H1          3.0730   -1.4000    3.3340 hc        1 MOL      0.059942
      5 H2          3.4290   -2.5730    2.0440 hc        1 MOL      0.059942
      6 H3          3.9440   -2.9050    3.7150 hc        1 MOL      0.059942
      7 N1          6.2820   -1.8640    3.2010 n         1 MOL     -0.598171
      8 C3          7.6130   -1.3890    2.7770 c3        1 MOL      0.282374
      9 C4          8.0250   -1.9180    1.3840 c         1 MOL      0.571084
     10 O2          7.8320   -3.0680    1.0540 o         1 MOL     -0.563219
     11 C5          8.7010   -1.8300    3.7210 c3        1 MOL     -0.218131
     12 C6         10.0270   -1.1960    3.4080 c         1 MOL      0.689789
     13 O3         10.1740   -0.0280    2.9420 o         1 MOL     -0.716358
     14 O4         10.9890   -1.9840    3.6620 o         1 MOL     -0.716358
     15 H4          6.1760   -2.5920    3.9020 hn        1 MOL      0.300362
     16 H5          7.5570   -0.3100    2.7250 h1        1 MOL     -0.024135
     17 H6          8.6740   -2.9070    3.5520 hc        1 MOL      0.026364
     18 H7          8.4320   -1.6110    4.7490 hc        1 MOL      0.026364
     19 N2          8.5030   -1.0080    0.5460 n         1 MOL     -0.451394
     20 C7          8.7480   -1.2980   -0.8660 c3        1 MOL      0.347334
     21 C8          7.4360   -1.1510   -1.7130 c         1 MOL      0.262364
     22 O5          7.4360   -1.4480   -2.9300 o         1 MOL     -0.500539
     23 C9          9.8970   -0.4180   -1.3600 c3        1 MOL     -0.320695
     24 H8          8.7950   -0.1150    0.9170 hn        1 MOL      0.259964
     25 H9          9.0450   -2.3400   -0.9970 h1        1 MOL      0.033743
     26 H10         9.5010    0.4980   -1.8000 hc        1 MOL      0.078828
     27 H11        10.5580   -0.2180   -0.5150 hc        1 MOL      0.078828
     28 H12        10.3950   -0.9310   -2.1780 hc        1 MOL      0.078828
     29 N3          6.2920   -0.7460   -1.0770 n         1 MOL     -0.272718
     30 C10         4.9580   -0.9830   -1.5790 c3        1 MOL      0.069842
     31 C11         4.7470   -0.1830   -2.8700 c         1 MOL      0.527560
     32 O6          3.9690   -0.6550   -3.7120 o         1 MOL     -0.526077
     33 C12         4.8330   -2.5170   -1.8140 c3        1 MOL      0.007987
     34 C13         3.4110   -3.0550   -1.6740 c         1 MOL      0.733029
     35 O7          2.4490   -2.3640   -1.2390 o         1 MOL     -0.754695
     36 O8          3.2590   -4.2790   -1.9160 o         1 MOL     -0.754695
     37 H13         6.4430   -0.4400   -0.1250 hn        1 MOL      0.140552
     38 H14         4.2080   -0.6590   -0.8450 h1        1 MOL      0.066203
     39 H15         5.4470   -3.0480   -1.0810 hc        1 MOL      0.008907
     40 H16         5.1410   -2.8250   -2.8120 hc        1 MOL      0.008907
     41 N4          5.2880    1.0050   -2.9830 n         1 MOL     -0.367214
     42 C14         5.0940    1.8140   -4.1540 c3        1 MOL     -0.082098
     43 C15         3.8160    2.6710   -4.1490 c         1 MOL      0.626604
     44 O9          3.8190    3.7820   -4.6840 o         1 MOL     -0.629943
     45 H17         5.8880    1.3270   -2.2390 hn        1 MOL      0.264226
     46 H18         5.0780    1.2110   -5.0610 h1        1 MOL      0.080634
     47 H19         5.9260    2.5150   -4.2240 h1        1 MOL      0.080634
     48 N5          2.7200    2.2180   -3.5810 n         1 MOL     -0.456095
     49 C16         1.4500    2.9070   -3.5320 c3        1 MOL      0.133441
     50 C17         1.4990    4.1110   -2.6360 c         1 MOL      0.516063
     51 O10         2.0930    4.1290   -1.5650 o         1 MOL     -0.525318
     52 C18         0.3690    1.9890   -3.1510 c3        1 MOL     -0.332136
     53 C19        -1.0030    2.6020   -3.2920 c         1 MOL      0.645276
     54 N6         -1.6440    2.9010   -2.1260 n         1 MOL     -0.778179
     55 O11        -1.4010    2.9760   -4.3790 o         1 MOL     -0.579546
     56 H20         2.7950    1.2980   -3.1600 hn        1 MOL      0.237297
     57 H21         1.2220    3.2170   -4.5560 h1        1 MOL      0.039461
     58 H22         0.6300    1.7700   -2.1200 hc        1 MOL      0.161603
     59 H23         0.3900    1.1690   -3.8730 hc        1 MOL      0.161603
     60 H24        -1.2800    2.5500   -1.2580 hn        1 MOL      0.351631
     61 H25        -2.4990    3.4300   -2.1050 hn        1 MOL      0.351631
     62 N7          0.8790    5.2110   -3.0290 n         1 MOL     -0.224681
     63 C20         0.8020    6.4220   -2.2910 c3        1 MOL     -0.234480
     64 C21        -0.2080    6.5450   -1.1690 c         1 MOL      0.622923
     65 O12        -1.2950    5.9370   -1.2990 o         1 MOL     -0.513567
     66 H26         0.5010    5.2850   -3.9730 hn        1 MOL      0.246978
     67 H27         0.5060    7.2540   -2.9200 h1        1 MOL      0.097496
     68 H28         1.7960    6.6590   -1.8910 h1        1 MOL      0.097496
     69 N8          0.0210    7.2090   -0.0100 n         1 MOL     -0.417597
     70 C22        -1.0190    7.3670    1.0440 c3        1 MOL     -0.430849
     71 C23        -1.4740    6.0910    1.8140 c         1 MOL      0.559119
     72 O13        -2.5030    6.1110    2.5260 o         1 MOL     -0.567549
     73 C24        -0.7180    8.4690    2.1560 c3        1 MOL      0.663694
     74 C25         0.2540    8.2140    3.3140 c3        1 MOL     -0.545054
     75 O14        -0.3150    9.7090    1.5660 oh        1 MOL     -0.672926
     76 H29         0.9460    7.6100    0.0500 hn        1 MOL      0.268088
     77 H30        -1.8730    7.7180    0.4690 h1        1 MOL      0.180884
     78 H31        -1.6690    8.6340    2.6630 h1        1 MOL      0.005351
     79 H32         0.5160    9.5570    1.1120 ho        1 MOL      0.384197
     80 H33         0.0020    7.3370    3.9080 hc        1 MOL      0.129243
     81 H34         1.2970    8.0960    3.0190 hc        1 MOL      0.129243
     82 H35         0.0340    9.0380    3.9860 hc        1 MOL      0.129243
     83 N9         -0.9060    4.9220    1.5770 n         1 MOL     -0.191816
     84 C26        -1.1300    3.6720    2.2790 c3        1 MOL     -0.096030
     85 C27        -1.0330    2.5170    1.2360 c         1 MOL      0.610834
     86 O15        -0.2810    2.5770    0.2910 o         1 MOL     -0.495246
     87 C28        -0.0690    3.5130    3.3840 c3        1 MOL      0.174075
     88 C29        -0.4590    4.3830    4.6400 c3        1 MOL     -0.071217
     89 C30         0.0330    2.0500    3.9040 c3        1 MOL     -0.340430
     90 C31         0.8000    4.8730    5.4330 c3        1 MOL     -0.027326
     91 H36        -0.3110    4.8510    0.7680 hn        1 MOL      0.192169
     92 H37        -2.1020    3.5750    2.7730 h1        1 MOL      0.071218
     93 H38         0.8950    3.8070    2.9750 hc        1 MOL      0.020372
     94 H39        -1.1230    3.8510    5.3280 hc        1 MOL      0.007685
     95 H40        -0.9170    5.2330    4.1260 hc        1 MOL      0.007685
     96 H41         0.8180    2.0740    4.6600 hc        1 MOL      0.095449
     97 H42        -0.9630    1.7290    4.2290 hc        1 MOL      0.095449
     98 H43         0.3870    1.4070    3.0940 hc        1 MOL      0.095449
     99 H44         0.5640    5.4440    6.3380 hc        1 MOL      0.010365
    100 H45         1.3180    4.0050    5.8370 hc        1 MOL      0.010365
    101 H46         1.5150    5.4420    4.8390 hc        1 MOL      0.010365
    102 N10        -1.9090    1.5150    1.3120 n         1 MOL     -0.794582
    103 C32        -1.9130    0.3110    0.4110 c3        1 MOL      0.579479
    104 C33        -3.2670   -0.2490    0.2710 c         1 MOL      0.354609
    105 O16        -3.4810   -1.3780   -0.1670 o         1 MOL     -0.446534
    106 C34        -1.0120   -0.7560    1.0730 c3        1 MOL     -0.365163
    107 C35        -0.6980   -2.0330    0.2460 c         1 MOL      0.717230
    108 O17        -0.6600   -2.0610   -1.0060 o         1 MOL     -0.706246
    109 O18        -0.4700   -3.0660    0.8760 o         1 MOL     -0.706246
    110 H47        -2.6690    1.6230    1.9740 hn        1 MOL      0.375711
    111 H48        -1.4880    0.5680   -0.5540 h1        1 MOL     -0.071443
    112 H49        -1.3900   -1.1140    2.0280 hc        1 MOL      0.096558
    113 H50        -0.0050   -0.3850    1.2620 hc        1 MOL      0.096558
    114 N11        -4.2540    0.5470    0.6410 n         1 MOL     -0.407326
    115 C36        -5.5700    0.3340    0.0540 c3        1 MOL      0.326394
    116 C37        -6.2810   -0.9090    0.4970 c         1 MOL      0.239727
    117 O19        -6.4280   -1.1360    1.7090 o         1 MOL     -0.478829
    118 C38        -6.3830    1.5830    0.3110 c3        1 MOL     -0.440620
    119 C39        -7.6110    1.6000   -0.5440 ca        1 MOL      0.267564
    120 C40        -7.6260    2.1490   -1.8450 ca        1 MOL     -0.245297
    121 C41        -8.8380    1.2090    0.0560 ca        1 MOL     -0.245297
    122 C42        -8.8430    2.1700   -2.6470 ca        1 MOL     -0.075360
    123 C43       -10.0270    1.2600   -0.7430 ca        1 MOL     -0.075360
    124 C44       -10.0080    1.6460   -2.0890 ca        1 MOL     -0.166917
    125 H51        -4.0880    1.2830    1.3090 hn        1 MOL      0.240301
    126 H52        -5.5010    0.2980   -1.0390 h1        1 MOL     -0.000879
    127 H53        -5.6810    2.3290   -0.0740 hc        1 MOL      0.132592
    128 H54        -6.6120    1.5860    1.3780 hc        1 MOL      0.132592
    129 H55        -6.7180    2.5520   -2.2750 ha        1 MOL      0.156134
    130 H56        -8.8550    0.8160    1.0540 ha        1 MOL      0.156134
    131 H57        -8.7620    2.5840   -3.6410 ha        1 MOL      0.110480
    132 H58       -10.9320    0.8470   -0.3260 ha        1 MOL      0.110480
    133 H59       -10.8780    1.7420   -2.7270 ha        1 MOL      0.113463
    134 N12        -6.8820   -1.8320   -0.3520 n         1 MOL     -0.192965
    135 C45        -7.6860   -2.9710    0.1430 c3        1 MOL      0.340249
    136 C46        -6.8980   -3.9930    0.9940 c         1 MOL      0.200160
    137 O20        -7.4690   -4.6120    1.9640 o         1 MOL     -0.498910
    138 C47        -8.3120   -3.5880   -1.1570 c3        1 MOL     -0.019836
    139 C48        -8.2660   -2.4530   -2.1630 c3        1 MOL     -0.016250
    140 C49        -6.9270   -1.7510   -1.8700 c3        1 MOL      0.041751
    141 H60        -8.5290   -2.7150    0.7750 h1        1 MOL     -0.001952
    142 H61        -7.7270   -4.4450   -1.5010 hc        1 MOL      0.001547
    143 H62        -9.3460   -3.8240   -0.8980 hc        1 MOL      0.001547
    144 H63        -8.3100   -2.7360   -3.2100 hc        1 MOL      0.005199
    145 H64        -9.1170   -1.8250   -1.9030 hc        1 MOL      0.005199
    146 H65        -6.0960   -2.3030   -2.3150 h1        1 MOL      0.042516
    147 H66        -7.0390   -0.7260   -2.2280 h1        1 MOL      0.042516
    148 N13        -5.6970   -4.3590    0.5930 n         1 MOL     -0.260771
    149 C50        -4.8150   -5.1070    1.4800 c3        1 MOL     -0.155839
    150 C51        -4.6340   -4.5030    2.9020 c         1 MOL      0.502479
    151 O21        -4.4750   -5.2270    3.8850 o         1 MOL     -0.559086
    152 C52        -3.3870   -5.0040    0.9180 c3        1 MOL     -0.086569
    153 C53        -3.1970   -6.0090   -0.2690 c3        1 MOL     -0.024095
    154 C54        -1.7150   -5.8250   -0.5870 c         1 MOL      0.612168
    155 O22        -1.4010   -5.2940   -1.6340 o         1 MOL     -0.727381
    156 O23        -0.8310   -6.0250    0.2660 o         1 MOL     -0.727381
    157 H67        -5.4310   -3.9880   -0.3140 hn        1 MOL      0.279055
    158 H68        -5.1500   -6.1380    1.5310 h1        1 MOL      0.146723
    159 H69        -2.7350   -5.2760    1.7480 hc        1 MOL      0.081364
    160 H70        -3.1270   -4.0210    0.5130 hc        1 MOL      0.081364
    161 H71        -3.7490   -5.7210   -1.1650 hc        1 MOL     -0.002658
    162 H72        -3.4480   -7.0280    0.0600 hc        1 MOL     -0.002658
    163 N14        -4.6130   -3.2100    3.1400 n         1 MOL     -0.154353
    164 C55        -4.2490   -2.5590    4.3800 c3        1 MOL     -0.164459
    165 H73        -4.7590   -3.0490    5.2100 h1        1 MOL      0.069777
    166 H74        -3.1710   -2.6280    4.5250 h1        1 MOL      0.069777
    167 H75        -4.5450   -1.5110    4.3410 h1        1 MOL      0.069777
    168 H76        -4.9010   -2.5560    2.4250 hn        1 MOL      0.199807
    169 Ca1         0.8360   -4.3600   -0.9980 Ca        1 MOL      1.669729
    170 O24         1.0880   -6.8170   -2.1530 oh        1 MOL     -0.764136
    171 H77         1.8160   -7.4300   -2.2160 ho        1 MOL      0.378345
    172 H78         0.3860   -7.3090   -1.7300 ho        1 MOL      0.378345
    173 O25         0.8560   -3.8520   -3.7210 oh        1 MOL     -0.764136
    174 H79         0.4560   -4.0710   -4.5670 ho        1 MOL      0.378345
    175 H80         1.7330   -3.5430   -3.9320 ho        1 MOL      0.378345
    176 O26         2.8060   -4.8080    0.6890 oh        1 MOL     -0.764136
    177 H81         3.7520   -4.9500    0.7450 ho        1 MOL      0.378345
    178 H82         2.4840   -4.9920    1.5700 ho        1 MOL      0.378345
@<TRIPOS>BOND
     1    1    2 1   
     2    1    4 1   
     3    1    5 1   
     4    1    6 1   
     5    2    3 2   
     6    2    7 1   
     7    7    8 1   
     8    7   15 1   
     9    8    9 1   
    10    8   11 1   
    11    8   16 1   
    12    9   10 2   
    13    9   19 1   
    14   11   12 1   
    15   11   17 1   
    16   11   18 1   
    17   12   13 1   
    18   12   14 1   
    19   19   20 1   
    20   19   24 1   
    21   20   21 1   
    22   20   23 1   
    23   20   25 1   
    24   21   22 2   
    25   21   29 1   
    26   23   26 1   
    27   23   27 1   
    28   23   28 1   
    29   29   30 1   
    30   29   37 1   
    31   30   31 1   
    32   30   33 1   
    33   30   38 1   
    34   31   32 2   
    35   31   41 1   
    36   33   34 1   
    37   33   39 1   
    38   33   40 1   
    39   34   35 1   
    40   34   36 1   
    41   41   42 1   
    42   41   45 1   
    43   42   43 1   
    44   42   46 1   
    45   42   47 1   
    46   43   44 2   
    47   43   48 1   
    48   48   49 1   
    49   48   56 1   
    50   49   50 1   
    51   49   52 1   
    52   49   57 1   
    53   50   51 2   
    54   50   62 1   
    55   52   53 1   
    56   52   58 1   
    57   52   59 1   
    58   53   54 1   
    59   53   55 2   
    60   54   60 1   
    61   54   61 1   
    62   62   63 1   
    63   62   66 1   
    64   63   64 1   
    65   63   67 1   
    66   63   68 1   
    67   64   65 2   
    68   64   69 1   
    69   69   70 1   
    70   69   76 1   
    71   70   71 1   
    72   70   73 1   
    73   70   77 1   
    74   71   72 2   
    75   71   83 1   
    76   73   74 1   
    77   73   75 1   
    78   73   78 1   
    79   74   80 1   
    80   74   81 1   
    81   74   82 1   
    82   75   79 1   
    83   83   84 1   
    84   83   91 1   
    85   84   85 1   
    86   84   87 1   
    87   84   92 1   
    88   85   86 2   
    89   85  102 1   
    90   87   88 1   
    91   87   89 1   
    92   87   93 1   
    93   88   90 1   
    94   88   94 1   
    95   88   95 1   
    96   89   96 1   
    97   89   97 1   
    98   89   98 1   
    99   90   99 1   
   100   90  100 1   
   101   90  101 1   
   102  102  103 1   
   103  102  110 1   
   104  103  104 1   
   105  103  106 1   
   106  103  111 1   
   107  104  105 2   
   108  104  114 1   
   109  106  107 1   
   110  106  112 1   
   111  106  113 1   
   112  107  108 1   
   113  107  109 1   
   114  114  115 1   
   115  114  125 1   
   116  115  116 1   
   117  115  118 1   
   118  115  126 1   
   119  116  117 2   
   120  116  134 1   
   121  118  119 1   
   122  118  127 1   
   123  118  128 1   
   124  119  120 ar  
   125  119  121 ar  
   126  120  122 ar  
   127  120  129 1   
   128  121  123 ar  
   129  121  130 1   
   130  122  124 ar  
   131  122  131 1   
   132  123  124 ar  
   133  123  132 1   
   134  124  133 1   
   135  134  135 1   
   136  134  140 1   
   137  135  136 1   
   138  135  138 1   
   139  135  141 1   
   140  136  137 2   
   141  136  148 1   
   142  138  139 1   
   143  138  142 1   
   144  138  143 1   
   145  139  140 1   
   146  139  144 1   
   147  139  145 1   
   148  140  146 1   
   149  140  147 1   
   150  148  149 1   
   151  148  157 1   
   152  149  150 1   
   153  149  152 1   
   154  149  158 1   
   155  150  151 2   
   156  150  163 1   
   157  152  153 1   
   158  152  159 1   
   159  152  160 1   
   160  153  154 1   
   161  153  161 1   
   162  153  162 1   
   163  154  155 1   
   164  154  156 1   
   165  163  164 1   
   166  163  168 1   
   167  164  165 1   
   168  164  166 1   
   169  164  167 1   
   170  170  171 1   
   171  170  172 1   
   172  173  174 1   
   173  173  175 1   
   174  176  177 1   
   175  176  178 1   
@<TRIPOS>SUBSTRUCTURE
     1 MOL         1 TEMP              0 ****  ****    0 ROOT
