@<TRIPOS>MOLECULE
MOL
  186   183     1     0     0
SMALL
resp


@<TRIPOS>ATOM
      1 C1          4.7370    4.2600   -3.2010 c3        1 MOL     -0.417740
      2 C2          5.4310    3.3720   -2.1040 c         1 MOL      0.775881
      3 O1          4.8310    3.0610   -1.0950 o         1 MOL     -0.551011
      4 H1          3.6890    4.4060   -2.9400 hc        1 MOL      0.104250
      5 H2          5.2350    5.2280   -3.2540 hc        1 MOL      0.104250
      6 H3          4.8030    3.7630   -4.1680 hc        1 MOL      0.104250
      7 N1          6.6480    2.9390   -2.3230 n         1 MOL     -0.668483
      8 C3          7.4170    1.9100   -1.6210 c3        1 MOL      0.346123
      9 C4          6.4630    0.6680   -1.4720 c         1 MOL      0.137426
     10 O2          6.1240    0.2700   -0.3500 o         1 MOL     -0.424031
     11 C5          8.2160    2.4370   -0.4000 c3        1 MOL     -0.310406
     12 C6          7.4810    3.3150    0.6360 c         1 MOL      0.823858
     13 O3          6.6620    2.8930    1.4880 o         1 MOL     -0.746627
     14 O4          7.7240    4.5400    0.6450 o         1 MOL     -0.746627
     15 H4          7.0110    3.1880   -3.2320 hn        1 MOL      0.289580
     16 H5          8.2140    1.5400   -2.2790 h1        1 MOL      0.023964
     17 H6          9.0270    3.0430   -0.8110 hc        1 MOL      0.058777
     18 H7          8.7410    1.6560    0.1460 hc        1 MOL      0.058777
     19 N2          6.0830    0.1610   -2.5960 n         1 MOL     -0.163955
     20 C7          5.2520   -1.1230   -2.6970 c3        1 MOL      0.014277
     21 C8          5.8610   -2.3880   -2.0050 c         1 MOL      0.382998
     22 O5          6.3950   -3.2350   -2.6580 o         1 MOL     -0.547808
     23 C9          3.7520   -0.8960   -2.3560 c3        1 MOL      0.222160
     24 C10         2.8430   -2.1060   -2.5570 c3        1 MOL      0.163124
     25 C11         3.3180    0.2860   -3.1960 c3        1 MOL     -0.784136
     26 C12         2.7960   -2.5590   -4.0430 c3        1 MOL     -0.109552
     27 H8          6.4680    0.5600   -3.4350 hn        1 MOL      0.203354
     28 H9          5.2730   -1.3460   -3.7610 h1        1 MOL      0.043606
     29 H10         3.6290   -0.5160   -1.3390 hc        1 MOL     -0.095078
     30 H11         1.8220   -1.8020   -2.3080 hc        1 MOL     -0.037146
     31 H12         3.1730   -2.9220   -1.9130 hc        1 MOL     -0.037146
     32 H13         3.7530    1.2260   -2.8400 hc        1 MOL      0.178076
     33 H14         3.5700    0.0820   -4.2350 hc        1 MOL      0.178076
     34 H15         2.2460    0.4140   -3.0670 hc        1 MOL      0.178076
     35 H16         3.8310   -2.8380   -4.2750 hc        1 MOL      0.003821
     36 H17         2.0930   -3.3780   -4.1000 hc        1 MOL      0.003821
     37 H18         2.4940   -1.8540   -4.8160 hc        1 MOL      0.003821
     38 N3          5.7910   -2.4590   -0.6880 n         1 MOL     -0.018175
     39 C13         6.6970   -3.3090    0.0550 c3        1 MOL     -0.039157
     40 C14         6.2130   -4.7270    0.3000 c         1 MOL      0.624871
     41 O6          6.9560   -5.6530    0.1820 o         1 MOL     -0.581533
     42 C15         7.3930   -2.6040    1.2250 c3        1 MOL     -0.084557
     43 C16         8.2470   -1.4280    0.9510 c         1 MOL      0.638088
     44 O7          8.6880   -1.2650   -0.2290 o         1 MOL     -0.678285
     45 O8          8.5000   -0.6570    1.8960 o         1 MOL     -0.678285
     46 H19         5.3170   -1.7470   -0.1530 hn        1 MOL      0.193869
     47 H20         7.6120   -3.5430   -0.4920 h1        1 MOL      0.059828
     48 H21         7.9940   -3.2200    1.8850 hc        1 MOL      0.026659
     49 H22         6.5920   -2.2650    1.8860 hc        1 MOL      0.026659
     50 N4          4.9170   -4.9850    0.5860 n         1 MOL     -0.684444
     51 C17         3.9310   -4.0510    1.1840 c3        1 MOL      0.344213
     52 C18         4.3510   -3.5070    2.5680 c         1 MOL      0.278960
     53 O9          5.2830   -3.9900    3.2110 o         1 MOL     -0.524630
     54 H23         4.7430   -5.9760    0.6730 hn        1 MOL      0.313341
     55 H24         3.1670   -4.7740    1.4550 h1        1 MOL     -0.007962
     56 H25         3.6330   -3.2670    0.4950 h1        1 MOL     -0.007962
     57 N5          3.6850   -2.4950    3.0920 n         1 MOL     -0.181583
     58 C19         2.3230   -2.0530    2.7710 c3        1 MOL     -0.004094
     59 C20         2.3390   -1.3230    1.4020 c         1 MOL      0.032555
     60 O10         3.3900   -0.8170    0.9600 o         1 MOL     -0.356650
     61 C21         1.8240   -1.0610    3.8520 c3        1 MOL     -0.123808
     62 C22         2.5960    0.2950    4.0450 c         1 MOL      0.686548
     63 O11         2.6270    1.0830    3.0730 o         1 MOL     -0.683595
     64 O12         3.2570    0.4990    5.1300 o         1 MOL     -0.683595
     65 H26         4.0650   -2.4190    4.0210 hn        1 MOL      0.258375
     66 H27         1.6580   -2.9170    2.7950 h1        1 MOL      0.024610
     67 H28         2.0230   -1.5420    4.8050 hc        1 MOL      0.024606
     68 H29         0.7450   -0.8930    3.7990 hc        1 MOL      0.024606
     69 N6          1.2310   -1.3180    0.5920 n         1 MOL      0.004587
     70 C23        -0.1700   -1.6730    0.8650 c3        1 MOL     -0.092734
     71 C24        -0.5630   -2.8870    0.0700 c         1 MOL      0.355345
     72 O13         0.0850   -3.3510   -0.9190 o         1 MOL     -0.490386
     73 H30         1.4460   -0.8140   -0.2560 hn        1 MOL      0.207188
     74 H31        -0.8080   -0.7970    0.8070 h1        1 MOL      0.106978
     75 H32        -0.2520   -1.9550    1.9130 h1        1 MOL      0.106978
     76 N7         -1.6770   -3.4830    0.4650 n         1 MOL     -0.323142
     77 C25        -2.3080   -4.6200   -0.3180 c3        1 MOL     -0.019132
     78 C26        -2.7130   -4.1540   -1.7250 c         1 MOL      0.203929
     79 O14        -2.6780   -4.9700   -2.6930 o         1 MOL     -0.490961
     80 C27        -3.4950   -5.4020    0.4510 c3        1 MOL      0.320787
     81 C28        -3.0530   -5.7450    1.9080 c3        1 MOL     -0.393633
     82 C29        -4.2800   -5.9840    2.7650 c         1 MOL      0.661596
     83 N8         -4.7890   -7.1540    2.7900 n         1 MOL     -0.748854
     84 O15        -4.9130   -5.0780    3.3540 o         1 MOL     -0.554921
     85 H33        -2.1900   -3.1490    1.2750 hn        1 MOL      0.259043
     86 H34        -1.5670   -5.4060   -0.4140 h1        1 MOL      0.138688
     87 H35        -3.6320   -6.3200   -0.1150 hc        1 MOL     -0.047439
     88 H36        -4.4370   -4.8400    0.4730 hc        1 MOL     -0.047439
     89 H37        -2.4120   -5.0020    2.3980 hc        1 MOL      0.097143
     90 H38        -2.5130   -6.6660    1.7070 hc        1 MOL      0.097143
     91 H39        -4.1860   -7.9570    2.6910 hn        1 MOL      0.343818
     92 H40        -5.6540   -7.3080    3.2850 hn        1 MOL      0.343818
     93 N9         -2.9490   -2.8780   -1.9740 n         1 MOL     -0.068640
     94 C30        -3.2190   -2.3860   -3.3480 c3        1 MOL     -0.190033
     95 C31        -4.6230   -1.7130   -3.4760 c         1 MOL      0.643765
     96 O16        -5.0600   -1.6150   -4.6310 o         1 MOL     -0.576667
     97 C32        -2.0800   -1.5040   -4.0220 c3        1 MOL      0.156733
     98 C33        -1.0250   -2.5160   -4.4400 c3        1 MOL     -0.385750
     99 C34        -1.4910   -0.4040   -3.1150 c3        1 MOL     -0.385750
    100 H41        -2.8690   -2.2950   -1.1530 hn        1 MOL      0.198189
    101 H42        -3.2830   -3.2520   -3.9970 h1        1 MOL      0.133126
    102 H43        -2.4960   -1.0250   -4.8980 hc        1 MOL      0.039237
    103 H44        -1.4640   -3.3140   -5.0420 hc        1 MOL      0.117101
    104 H45        -0.2640   -1.9840   -5.0140 hc        1 MOL      0.117101
    105 H46        -0.3620   -3.0520   -3.7560 hc        1 MOL      0.117101
    106 H47        -2.2240    0.3530   -2.8510 hc        1 MOL      0.117101
    107 H48        -0.9970   -0.7760   -2.2210 hc        1 MOL      0.117101
    108 H49        -0.6610    0.1130   -3.5940 hc        1 MOL      0.117101
    109 N10        -5.1890   -1.2610   -2.3720 n         1 MOL     -0.588037
    110 C35        -6.5890   -0.7540   -2.3820 c3        1 MOL      0.254073
    111 C36        -6.7750    0.5650   -1.5820 c         1 MOL      0.448773
    112 O17        -7.7160    1.3580   -1.8440 o         1 MOL     -0.570632
    113 C37        -7.5610   -1.9250   -1.9440 c3        1 MOL     -0.239837
    114 C38        -7.1440   -2.5310   -0.6100 c         1 MOL      0.668026
    115 N11        -7.9700   -3.4010   -0.0990 n         1 MOL     -0.771528
    116 O18        -6.1210   -2.2540   -0.0040 o         1 MOL     -0.533318
    117 H50        -4.6510   -1.4730   -1.5400 hn        1 MOL      0.240284
    118 H51        -6.8730   -0.5250   -3.4030 h1        1 MOL      0.046070
    119 H52        -7.5120   -2.7210   -2.7010 hc        1 MOL      0.081638
    120 H53        -8.5760   -1.5480   -1.9460 hc        1 MOL      0.081638
    121 H54        -8.7490   -3.7780   -0.6130 hn        1 MOL      0.370829
    122 H55        -7.6410   -3.7360    0.7910 hn        1 MOL      0.370829
    123 N12        -5.9800    0.8150   -0.5390 n         1 MOL     -0.336965
    124 C39        -6.0480    1.9280    0.4350 c3        1 MOL      0.058384
    125 C40        -4.6650    2.5880    0.6230 c         1 MOL      0.402030
    126 O19        -3.6460    1.9590    0.5070 o         1 MOL     -0.466337
    127 C41        -6.6000    1.4310    1.7270 c3        1 MOL      0.048689
    128 C42        -7.9930    0.8410    1.6520 ca        1 MOL     -0.105755
    129 C43        -8.1020   -0.4890    1.9530 ca        1 MOL     -0.040468
    130 C44        -9.0710    1.4900    1.0640 ca        1 MOL     -0.040468
    131 C45        -9.2300   -1.2440    1.7180 ca        1 MOL     -0.347974
    132 C46       -10.2630    0.7690    0.7570 ca        1 MOL     -0.347974
    133 C47       -10.3010   -0.6070    1.1130 ca        1 MOL      0.409021
    134 O20       -11.4430   -1.3350    0.7680 oh        1 MOL     -0.571447
    135 H56        -5.3100    0.0720   -0.4010 hn        1 MOL      0.236604
    136 H57        -6.6700    2.7280    0.0160 h1        1 MOL      0.068151
    137 H58        -6.5750    2.1820    2.5160 hc        1 MOL      0.040995
    138 H59        -5.8530    0.7340    2.0980 hc        1 MOL      0.040995
    139 H60        -7.2780   -1.0000    2.4350 ha        1 MOL      0.104525
    140 H61        -8.9230    2.5280    0.8070 ha        1 MOL      0.104525
    141 H62        -9.3230   -2.2680    2.0560 ha        1 MOL      0.162644
    142 H63       -11.0400    1.2570    0.1780 ha        1 MOL      0.162644
    143 H64       -12.1000   -0.8100    0.3060 ho        1 MOL      0.375092
    144 N13        -4.7690    3.8180    1.0350 n         1 MOL     -0.327629
    145 C48        -3.7730    4.8280    1.3650 c3        1 MOL      0.065462
    146 C49        -2.7430    5.1510    0.2330 c         1 MOL      0.289845
    147 O21        -2.1980    6.1800    0.2810 o         1 MOL     -0.490397
    148 C50        -2.9060    4.5450    2.6630 c3        1 MOL      0.141526
    149 C51        -3.6090    4.8430    3.9600 c3        1 MOL     -0.419756
    150 C52        -2.6180    4.8000    5.1600 c         1 MOL      0.723465
    151 O22        -2.5030    3.7060    5.8020 o         1 MOL     -0.710853
    152 O23        -1.8870    5.7500    5.4640 o         1 MOL     -0.710853
    153 H65        -5.6870    4.2190    0.8980 hn        1 MOL      0.228447
    154 H66        -4.2140    5.8050    1.5590 h1        1 MOL      0.058931
    155 H67        -2.0250    5.1860    2.6510 hc        1 MOL      0.078890
    156 H68        -2.5570    3.5130    2.6850 hc        1 MOL      0.078890
    157 H69        -4.4830    4.2020    4.0720 hc        1 MOL      0.034937
    158 H70        -3.9860    5.8710    3.8850 hc        1 MOL      0.034937
    159 N14        -2.4110    4.2830   -0.7020 n         1 MOL     -0.267507
    160 C53        -1.1890    4.4210   -1.6390 c3        1 MOL     -0.085178
    161 C54        -1.5490    5.1600   -3.0340 c         1 MOL      0.418313
    162 O24        -0.6240    5.4680   -3.8330 o         1 MOL     -0.516814
    163 C55        -0.6180    3.0820   -1.8140 c3        1 MOL     -0.073693
    164 C56         0.0310    2.2080   -0.6650 c3        1 MOL      0.395714
    165 C57         1.2900    2.7150    0.0260 c         1 MOL      0.462203
    166 O25         2.1610    1.8480    0.2440 o         1 MOL     -0.590934
    167 O26         1.2260    3.8240    0.6300 o         1 MOL     -0.590934
    168 H71        -2.8310    3.3650   -0.6310 hn        1 MOL      0.161164
    169 H72        -0.4370    4.9680   -1.0660 h1        1 MOL      0.155615
    170 H73         0.3130    3.2340   -2.3630 hc        1 MOL     -0.001891
    171 H74        -1.2060    2.4510   -2.4830 hc        1 MOL     -0.001891
    172 H75         0.1920    1.2030   -1.0590 hc        1 MOL     -0.131611
    173 H76        -0.6970    2.0790    0.1310 hc        1 MOL     -0.131611
    174 N15        -2.8510    5.3860   -3.2890 n         1 MOL     -0.165951
    175 C58        -3.2890    6.1210   -4.4920 c3        1 MOL     -0.202340
    176 H77        -4.2680    6.5650   -4.3100 h1        1 MOL      0.086832
    177 H78        -2.5700    6.9080   -4.7200 h1        1 MOL      0.086832
    178 H79        -3.3540    5.4330   -5.3350 h1        1 MOL      0.086832
    179 H80        -3.5280    5.0820   -2.6070 hn        1 MOL      0.195283
    180 Ca1         4.3870    1.6860    1.1540 Ca        1 MOL      1.684793
    181 O27         5.9340    0.1000    2.6060 oh        1 MOL     -0.901038
    182 H81         5.8750   -0.2970    3.4740 ho        1 MOL      0.412501
    183 H82         6.7060   -0.3140    2.2060 ho        1 MOL      0.412501
    184 O28         3.5660    4.3940    1.5960 oh        1 MOL     -0.901038
    185 H83         3.3740    4.6960    2.4750 ho        1 MOL      0.412501
    186 H84         2.7160    4.4230    1.1400 ho        1 MOL      0.412501
@<TRIPOS>BOND
     1    1    2 1   
     2    1    4 1   
     3    1    5 1   
     4    1    6 1   
     5    2    3 2   
     6    2    7 1   
     7    7    8 1   
     8    7   15 1   
     9    8    9 1   
    10    8   11 1   
    11    8   16 1   
    12    9   10 2   
    13    9   19 1   
    14   11   12 1   
    15   11   17 1   
    16   11   18 1   
    17   12   13 1   
    18   12   14 1   
    19   19   20 1   
    20   19   27 1   
    21   20   21 1   
    22   20   23 1   
    23   20   28 1   
    24   21   22 2   
    25   21   38 1   
    26   23   24 1   
    27   23   25 1   
    28   23   29 1   
    29   24   26 1   
    30   24   30 1   
    31   24   31 1   
    32   25   32 1   
    33   25   33 1   
    34   25   34 1   
    35   26   35 1   
    36   26   36 1   
    37   26   37 1   
    38   38   39 1   
    39   38   46 1   
    40   39   40 1   
    41   39   42 1   
    42   39   47 1   
    43   40   41 2   
    44   40   50 1   
    45   42   43 1   
    46   42   48 1   
    47   42   49 1   
    48   43   44 1   
    49   43   45 1   
    50   50   51 1   
    51   50   54 1   
    52   51   52 1   
    53   51   55 1   
    54   51   56 1   
    55   52   53 2   
    56   52   57 1   
    57   57   58 1   
    58   57   65 1   
    59   58   59 1   
    60   58   61 1   
    61   58   66 1   
    62   59   60 2   
    63   59   69 1   
    64   61   62 1   
    65   61   67 1   
    66   61   68 1   
    67   62   63 1   
    68   62   64 1   
    69   69   70 1   
    70   69   73 1   
    71   70   71 1   
    72   70   74 1   
    73   70   75 1   
    74   71   72 2   
    75   71   76 1   
    76   76   77 1   
    77   76   85 1   
    78   77   78 1   
    79   77   80 1   
    80   77   86 1   
    81   78   79 2   
    82   78   93 1   
    83   80   81 1   
    84   80   87 1   
    85   80   88 1   
    86   81   82 1   
    87   81   89 1   
    88   81   90 1   
    89   82   83 1   
    90   82   84 2   
    91   83   91 1   
    92   83   92 1   
    93   93   94 1   
    94   93  100 1   
    95   94   95 1   
    96   94   97 1   
    97   94  101 1   
    98   95   96 2   
    99   95  109 1   
   100   97   98 1   
   101   97   99 1   
   102   97  102 1   
   103   98  103 1   
   104   98  104 1   
   105   98  105 1   
   106   99  106 1   
   107   99  107 1   
   108   99  108 1   
   109  109  110 1   
   110  109  117 1   
   111  110  111 1   
   112  110  113 1   
   113  110  118 1   
   114  111  112 2   
   115  111  123 1   
   116  113  114 1   
   117  113  119 1   
   118  113  120 1   
   119  114  115 1   
   120  114  116 2   
   121  115  121 1   
   122  115  122 1   
   123  123  124 1   
   124  123  135 1   
   125  124  125 1   
   126  124  127 1   
   127  124  136 1   
   128  125  126 2   
   129  125  144 1   
   130  127  128 1   
   131  127  137 1   
   132  127  138 1   
   133  128  129 ar  
   134  128  130 ar  
   135  129  131 ar  
   136  129  139 1   
   137  130  132 ar  
   138  130  140 1   
   139  131  133 ar  
   140  131  141 1   
   141  132  133 ar  
   142  132  142 1   
   143  133  134 1   
   144  134  143 1   
   145  144  145 1   
   146  144  153 1   
   147  145  146 1   
   148  145  148 1   
   149  145  154 1   
   150  146  147 2   
   151  146  159 1   
   152  148  149 1   
   153  148  155 1   
   154  148  156 1   
   155  149  150 1   
   156  149  157 1   
   157  149  158 1   
   158  150  151 1   
   159  150  152 1   
   160  159  160 1   
   161  159  168 1   
   162  160  161 1   
   163  160  163 1   
   164  160  169 1   
   165  161  162 2   
   166  161  174 1   
   167  163  164 1   
   168  163  170 1   
   169  163  171 1   
   170  164  165 1   
   171  164  172 1   
   172  164  173 1   
   173  165  166 1   
   174  165  167 1   
   175  174  175 1   
   176  174  179 1   
   177  175  176 1   
   178  175  177 1   
   179  175  178 1   
   180  181  182 1   
   181  181  183 1   
   182  184  185 1   
   183  184  186 1   
@<TRIPOS>SUBSTRUCTURE
     1 MOL         1 TEMP              0 ****  ****    0 ROOT
