@<TRIPOS>MOLECULE
MOL
  195   189     1     0     0
SMALL
resp


@<TRIPOS>ATOM
      1 C1          4.0370   -2.1320   -1.9840 c3        1 MOL     -0.276934
      2 C2          3.0040   -2.8790   -1.1680 c         1 MOL      0.724178
      3 O1          2.0390   -2.2370   -0.7600 o         1 MOL     -0.481339
      4 H1          4.1200   -2.5900   -2.9700 hc        1 MOL      0.054956
      5 H2          3.7340   -1.0910   -2.0920 hc        1 MOL      0.054956
      6 H3          5.0020   -2.1790   -1.4800 hc        1 MOL      0.054956
      7 N1          3.1890   -4.1990   -0.9260 n         1 MOL     -0.787304
      8 C3          2.2660   -5.0060   -0.0930 c3        1 MOL      0.029151
      9 C4          0.8140   -4.8300   -0.5060 c         1 MOL      0.825343
     10 O2         -0.0640   -4.5720    0.3290 o         1 MOL     -0.517982
     11 C5          2.4240   -4.8000    1.4480 c3        1 MOL     -0.736018
     12 C6          3.9090   -4.7460    1.7870 c         1 MOL      1.028537
     13 O3          4.3730   -3.7200    2.3720 o         1 MOL     -0.771398
     14 O4          4.7580   -5.6400    1.5530 o         1 MOL     -0.771398
     15 H4          3.9350   -4.7080   -1.3780 hn        1 MOL      0.345494
     16 H5          2.4870   -6.0340   -0.4060 h1        1 MOL      0.111114
     17 H6          1.8600   -5.5290    2.0170 hc        1 MOL      0.212587
     18 H7          1.9790   -3.8320    1.6430 hc        1 MOL      0.212587
     19 N2          0.6170   -4.8310   -1.8450 n         1 MOL     -0.746930
     20 C7         -0.7520   -5.0220   -2.3670 c3        1 MOL     -0.101242
     21 C8         -1.3900   -6.4050   -1.9490 c         1 MOL      0.470387
     22 O5         -0.6200   -7.3730   -1.8770 o         1 MOL     -0.573452
     23 C9         -0.9050   -4.6230   -3.8190 c3        1 MOL      0.138052
     24 C10        -0.2410   -5.6590   -4.7600 c3        1 MOL      0.029879
     25 C11        -0.4050   -3.1230   -3.8940 c3        1 MOL     -0.419951
     26 C12        -0.1690   -5.1170   -6.2060 c3        1 MOL     -0.294450
     27 H8          1.3860   -4.9000   -2.4890 hn        1 MOL      0.421586
     28 H9         -1.3970   -4.2820   -1.8860 h1        1 MOL      0.157237
     29 H10        -1.9590   -4.6320   -4.1140 hc        1 MOL      0.077852
     30 H11        -0.7520   -6.6190   -4.6760 hc        1 MOL      0.021032
     31 H12         0.7460   -5.8880   -4.3620 hc        1 MOL      0.021032
     32 H13         0.5820   -3.1140   -4.3430 hc        1 MOL      0.115447
     33 H14        -0.9860   -2.5680   -4.6290 hc        1 MOL      0.115447
     34 H15        -0.4020   -2.6030   -2.9310 hc        1 MOL      0.115447
     35 H16         0.3170   -4.1510   -6.1530 hc        1 MOL      0.065015
     36 H17         0.4750   -5.6620   -6.8970 hc        1 MOL      0.065015
     37 H18        -1.2050   -5.1320   -6.5600 hc        1 MOL      0.065015
     38 N3         -2.7170   -6.5230   -1.6990 n         1 MOL     -0.432548
     39 C13        -3.8210   -5.5140   -1.5920 c3        1 MOL     -0.044343
     40 C14        -4.6200   -5.9310   -0.3580 c         1 MOL      0.424337
     41 O6         -5.0310   -7.1170   -0.3010 o         1 MOL     -0.542731
     42 C15        -4.7160   -5.5700   -2.8090 c3        1 MOL     -0.264418
     43 C16        -5.9900   -4.6990   -2.6900 c         1 MOL      0.811136
     44 O7         -5.9980   -3.7050   -1.8860 o         1 MOL     -0.749558
     45 O8         -7.0000   -4.8960   -3.4550 o         1 MOL     -0.749558
     46 H19        -3.0070   -7.4710   -1.5230 hn        1 MOL      0.314913
     47 H20        -3.5120   -4.4610   -1.6170 h1        1 MOL      0.095161
     48 H21        -5.0060   -6.6220   -2.8890 hc        1 MOL      0.051695
     49 H22        -4.1880   -5.2410   -3.7040 hc        1 MOL      0.051695
     50 N4         -4.9660   -4.9800    0.4810 n         1 MOL     -0.040443
     51 C17        -5.7070   -5.2740    1.6850 c3        1 MOL     -0.140474
     52 C18        -6.4010   -3.9940    2.1430 c         1 MOL      0.410287
     53 O9         -7.6560   -3.9790    2.1680 o         1 MOL     -0.526513
     54 H23        -4.4850   -4.0960    0.5120 hn        1 MOL      0.132180
     55 H24        -5.0020   -5.6470    2.4290 h1        1 MOL      0.072700
     56 H25        -6.5140   -5.9940    1.5260 h1        1 MOL      0.072700
     57 N5         -5.7030   -2.9720    2.4610 n         1 MOL     -0.225896
     58 C19        -6.2180   -1.7670    3.0790 c3        1 MOL     -0.072075
     59 C20        -7.1590   -1.0050    2.1720 c         1 MOL      0.494029
     60 O10        -8.2430   -0.6500    2.6910 o         1 MOL     -0.576697
     61 C21        -5.1200   -0.6660    3.5410 c3        1 MOL     -0.241688
     62 C22        -4.1400   -0.4070    2.3660 c         1 MOL      0.749268
     63 O11        -3.3050   -1.2320    2.0570 o         1 MOL     -0.669353
     64 O12        -4.1210    0.7110    1.8380 o         1 MOL     -0.669353
     65 H26        -4.7050   -3.1000    2.4930 hn        1 MOL      0.223087
     66 H27        -6.6880   -2.1070    4.0070 h1        1 MOL      0.084045
     67 H28        -4.5330   -1.1170    4.3340 hc        1 MOL      0.050362
     68 H29        -5.6240    0.2400    3.8600 hc        1 MOL      0.050362
     69 N6         -6.7490   -0.6890    0.9370 n         1 MOL     -0.160963
     70 C23        -7.5550    0.1510    0.0510 c3        1 MOL     -0.161435
     71 C24        -7.4730    1.6470    0.3390 c         1 MOL      0.461779
     72 O13        -8.2910    2.4030   -0.2500 o         1 MOL     -0.591826
     73 H30        -5.8110   -0.9620    0.6840 hn        1 MOL      0.235395
     74 H31        -8.5910   -0.1810    0.1730 h1        1 MOL      0.112289
     75 H32        -7.2860   -0.0620   -0.9890 h1        1 MOL      0.112289
     76 N7         -6.5530    2.1240    1.1530 n         1 MOL      0.075459
     77 C25        -6.3620    3.5480    1.5890 c3        1 MOL     -0.252386
     78 C26        -6.1100    4.4190    0.3380 c         1 MOL      0.577843
     79 O14        -6.3080    5.6690    0.3550 o         1 MOL     -0.524466
     80 C27        -7.5990    3.9780    2.4430 c3        1 MOL      0.029021
     81 C28        -7.7090    3.1930    3.7480 c3        1 MOL     -0.212164
     82 C29        -6.6990    3.6380    4.8190 c         1 MOL      0.657790
     83 N8         -6.5170    2.7970    5.8190 n         1 MOL     -0.775755
     84 O15        -6.2240    4.7650    4.9170 o         1 MOL     -0.556363
     85 H33        -5.8440    1.4710    1.4880 hn        1 MOL      0.005654
     86 H34        -5.4860    3.5180    2.2230 h1        1 MOL      0.174824
     87 H35        -8.4390    3.6990    1.8040 hc        1 MOL      0.038083
     88 H36        -7.6650    5.0380    2.6600 hc        1 MOL      0.038083
     89 H37        -7.5270    2.1460    3.5270 hc        1 MOL      0.059588
     90 H38        -8.6900    3.2020    4.2100 hc        1 MOL      0.059588
     91 H39        -6.9970    1.9110    5.8180 hn        1 MOL      0.342324
     92 H40        -6.1110    3.1420    6.6790 hn        1 MOL      0.342324
     93 N9         -5.6130    3.8310   -0.7790 n         1 MOL     -0.526655
     94 C30        -5.1320    4.6920   -1.9830 c3        1 MOL     -0.093582
     95 C31        -3.7030    4.4190   -2.4890 c         1 MOL      0.655000
     96 O16        -3.1720    5.2740   -3.2140 o         1 MOL     -0.584245
     97 C32        -6.2300    4.5180   -3.0490 c3        1 MOL      0.316606
     98 C33        -6.2900    3.0420   -3.4980 c3        1 MOL     -0.377622
     99 C34        -7.6420    4.9290   -2.6200 c3        1 MOL     -0.377622
    100 H41        -5.5580    2.8290   -0.8070 hn        1 MOL      0.295336
    101 H42        -5.0770    5.7520   -1.7200 h1        1 MOL      0.114834
    102 H43        -5.9790    5.1270   -3.9250 hc        1 MOL     -0.050154
    103 H44        -6.8160    2.4820   -2.7220 hc        1 MOL      0.091973
    104 H45        -6.9020    3.1020   -4.3960 hc        1 MOL      0.091973
    105 H46        -5.3050    2.6500   -3.7060 hc        1 MOL      0.091973
    106 H47        -7.9520    4.2190   -1.8660 hc        1 MOL      0.091973
    107 H48        -7.6150    5.9480   -2.2460 hc        1 MOL      0.091973
    108 H49        -8.3480    4.8830   -3.4530 hc        1 MOL      0.091973
    109 N10        -3.0610    3.2760   -2.0870 n         1 MOL     -0.495825
    110 C35        -1.7730    2.8190   -2.4300 c3        1 MOL      0.224990
    111 C36        -0.9030    2.9540   -1.1800 c         1 MOL      0.608676
    112 O17        -1.3700    2.6950   -0.0560 o         1 MOL     -0.545197
    113 C37        -1.9370    1.4510   -3.0830 c3        1 MOL     -0.215538
    114 C38        -0.5520    0.7920   -3.2350 c         1 MOL      0.553407
    115 N11        -0.0240    0.1320   -2.2160 n         1 MOL     -0.507810
    116 O18         0.0290    0.7900   -4.2600 o         1 MOL     -0.559115
    117 H50        -3.5810    2.5070   -1.6900 hn        1 MOL      0.268258
    118 H51        -1.3060    3.4410   -3.1890 h1        1 MOL      0.035017
    119 H52        -2.4370    1.6350   -4.0310 hc        1 MOL      0.068214
    120 H53        -2.5760    0.7910   -2.4920 hc        1 MOL      0.068214
    121 H54        -0.5800   -0.2380   -1.4510 hn        1 MOL      0.275532
    122 H55         0.8820   -0.3070   -2.3170 hn        1 MOL      0.275532
    123 N12         0.4140    3.2680   -1.3870 n         1 MOL     -0.653391
    124 C39         1.4290    3.5020   -0.3330 c3        1 MOL      0.237358
    125 C40         2.8260    3.9290   -0.9330 c         1 MOL      0.572874
    126 O19         3.0900    3.6760   -2.1110 o         1 MOL     -0.541921
    127 C41         1.7430    2.1850    0.3150 c3        1 MOL     -0.373157
    128 C42         2.1600    2.3430    1.7650 ca        1 MOL      0.187334
    129 C43         3.5070    2.2710    2.0580 ca        1 MOL     -0.256582
    130 C44         1.1170    2.5600    2.7160 ca        1 MOL     -0.256582
    131 C45         3.9360    2.5230    3.3770 ca        1 MOL     -0.186800
    132 C46         1.5350    2.6960    4.0400 ca        1 MOL     -0.186800
    133 C47         2.9380    2.7320    4.3950 ca        1 MOL      0.215464
    134 O20         3.1930    2.9240    5.7510 oh        1 MOL     -0.475101
    135 H56         0.8720    3.3800   -2.2790 hn        1 MOL      0.326568
    136 H57         1.1790    4.2400    0.4260 h1        1 MOL      0.068645
    137 H58         2.4230    1.5930   -0.3030 hc        1 MOL      0.124224
    138 H59         0.8590    1.5590    0.3960 hc        1 MOL      0.124224
    139 H60         4.1920    2.1200    1.2320 ha        1 MOL      0.231754
    140 H61         0.0650    2.5110    2.4840 ha        1 MOL      0.231754
    141 H62         4.9970    2.5300    3.5940 ha        1 MOL      0.133114
    142 H63         0.8420    2.8020    4.8640 ha        1 MOL      0.133114
    143 H64         4.1090    2.7410    5.9900 ho        1 MOL      0.346017
    144 N13         3.6120    4.7180   -0.1310 n         1 MOL     -0.673954
    145 C48         4.9710    5.1590   -0.4010 c3        1 MOL      0.239390
    146 C49         6.0510    4.5540    0.5110 c         1 MOL      0.317522
    147 O21         6.2910    5.0350    1.5870 o         1 MOL     -0.518603
    148 C50         5.0670    6.7620   -0.3370 c3        1 MOL      0.213445
    149 C51         3.9280    7.6000   -0.9280 c3        1 MOL     -0.244568
    150 C52         4.2360    9.0690   -0.9010 c         1 MOL      0.736213
    151 O22         4.0060    9.7900    0.0640 o         1 MOL     -0.703962
    152 O23         4.8000    9.5920   -1.8920 o         1 MOL     -0.703962
    153 H65         3.3650    4.7620    0.8450 hn        1 MOL      0.341622
    154 H66         5.2350    4.8730   -1.4180 h1        1 MOL      0.123548
    155 H67         5.8610    7.0400   -1.0380 hc        1 MOL     -0.033165
    156 H68         5.3470    7.0770    0.6610 hc        1 MOL     -0.033165
    157 H69         3.0010    7.3740   -0.4020 hc        1 MOL      0.013099
    158 H70         3.7970    7.3490   -1.9860 hc        1 MOL      0.013099
    159 N14         6.6700    3.4240    0.2050 n         1 MOL     -0.381702
    160 C53         6.5910    2.6260   -1.0500 c3        1 MOL      0.002795
    161 C54         6.9590    3.4380   -2.2690 c         1 MOL      0.354881
    162 O24         7.7590    4.3720   -2.2450 o         1 MOL     -0.473660
    163 C55         7.5300    1.4220   -0.9460 c3        1 MOL     -0.092583
    164 C56         7.0920    0.5360    0.2590 c3        1 MOL     -0.049504
    165 C57         7.5840   -0.8970    0.1420 c         1 MOL      0.909872
    166 O25         8.7620   -1.2210   -0.2540 o         1 MOL     -0.813057
    167 O26         6.8890   -1.8140    0.6140 o         1 MOL     -0.813057
    168 H71         7.1340    3.0140    1.0090 hn        1 MOL      0.285788
    169 H72         5.5770    2.2560   -1.2120 h1        1 MOL      0.079050
    170 H73         8.5240    1.7970   -0.6720 hc        1 MOL      0.057432
    171 H74         7.4990    0.9260   -1.9090 hc        1 MOL      0.057432
    172 H75         6.0070    0.5390    0.2160 hc        1 MOL     -0.013216
    173 H76         7.3750    0.9690    1.2100 hc        1 MOL     -0.013216
    174 N15         6.3950    3.1350   -3.4450 n         1 MOL     -0.277440
    175 C58         6.3110    4.0020   -4.6250 c3        1 MOL     -0.247242
    176 H77         6.0240    3.4080   -5.4930 h1        1 MOL      0.113968
    177 H78         5.5650    4.7780   -4.4550 h1        1 MOL      0.113968
    178 H79         7.2820    4.4640   -4.8070 h1        1 MOL      0.113968
    179 H80         5.8980    2.2660   -3.5840 hn        1 MOL      0.254579
    180 Ca1         6.8980   -4.1720    1.9030 Ca        1 MOL      1.661085
    181 O27         9.2460   -3.6520    0.4680 oh        1 MOL     -0.796336
    182 H81         9.6900   -4.0320   -0.2910 ho        1 MOL      0.380160
    183 H82         9.1490   -2.7220    0.2460 ho        1 MOL      0.380160
    184 O28         8.0850   -6.5570    1.4840 oh        1 MOL     -0.796336
    185 H83         8.9450   -6.7680    1.1120 ho        1 MOL      0.380160
    186 H84         7.7340   -7.3990    1.7720 ho        1 MOL      0.380160
    187 O29         8.8020   -4.6110    3.7250 oh        1 MOL     -0.796336
    188 H85         8.9210   -4.2140    4.5870 ho        1 MOL      0.380160
    189 H86         9.6550   -4.5530    3.3050 ho        1 MOL      0.380160
    190 O30         6.1840   -5.5700    4.1370 oh        1 MOL     -0.796336
    191 H87         6.5850   -5.0650    4.8430 ho        1 MOL      0.380160
    192 H88         5.2700   -5.6300    4.3750 ho        1 MOL      0.380160
    193 O31         6.8590   -2.0910    3.5720 oh        1 MOL     -0.796336
    194 H89         7.4670   -1.3780    3.7580 ho        1 MOL      0.380160
    195 H90         6.2260   -2.0600    4.2970 ho        1 MOL      0.380160
@<TRIPOS>BOND
     1    1    2 1   
     2    1    4 1   
     3    1    5 1   
     4    1    6 1   
     5    2    3 2   
     6    2    7 1   
     7    7    8 1   
     8    7   15 1   
     9    8    9 1   
    10    8   11 1   
    11    8   16 1   
    12    9   10 2   
    13    9   19 1   
    14   11   12 1   
    15   11   17 1   
    16   11   18 1   
    17   12   13 1   
    18   12   14 1   
    19   19   20 1   
    20   19   27 1   
    21   20   21 1   
    22   20   23 1   
    23   20   28 1   
    24   21   22 2   
    25   21   38 1   
    26   23   24 1   
    27   23   25 1   
    28   23   29 1   
    29   24   26 1   
    30   24   30 1   
    31   24   31 1   
    32   25   32 1   
    33   25   33 1   
    34   25   34 1   
    35   26   35 1   
    36   26   36 1   
    37   26   37 1   
    38   38   39 1   
    39   38   46 1   
    40   39   40 1   
    41   39   42 1   
    42   39   47 1   
    43   40   41 2   
    44   40   50 1   
    45   42   43 1   
    46   42   48 1   
    47   42   49 1   
    48   43   44 1   
    49   43   45 1   
    50   50   51 1   
    51   50   54 1   
    52   51   52 1   
    53   51   55 1   
    54   51   56 1   
    55   52   53 2   
    56   52   57 1   
    57   57   58 1   
    58   57   65 1   
    59   58   59 1   
    60   58   61 1   
    61   58   66 1   
    62   59   60 2   
    63   59   69 1   
    64   61   62 1   
    65   61   67 1   
    66   61   68 1   
    67   62   63 1   
    68   62   64 1   
    69   69   70 1   
    70   69   73 1   
    71   70   71 1   
    72   70   74 1   
    73   70   75 1   
    74   71   72 2   
    75   71   76 1   
    76   76   77 1   
    77   76   85 1   
    78   77   78 1   
    79   77   80 1   
    80   77   86 1   
    81   78   79 2   
    82   78   93 1   
    83   80   81 1   
    84   80   87 1   
    85   80   88 1   
    86   81   82 1   
    87   81   89 1   
    88   81   90 1   
    89   82   83 1   
    90   82   84 2   
    91   83   91 1   
    92   83   92 1   
    93   93   94 1   
    94   93  100 1   
    95   94   95 1   
    96   94   97 1   
    97   94  101 1   
    98   95   96 2   
    99   95  109 1   
   100   97   98 1   
   101   97   99 1   
   102   97  102 1   
   103   98  103 1   
   104   98  104 1   
   105   98  105 1   
   106   99  106 1   
   107   99  107 1   
   108   99  108 1   
   109  109  110 1   
   110  109  117 1   
   111  110  111 1   
   112  110  113 1   
   113  110  118 1   
   114  111  112 2   
   115  111  123 1   
   116  113  114 1   
   117  113  119 1   
   118  113  120 1   
   119  114  115 1   
   120  114  116 2   
   121  115  121 1   
   122  115  122 1   
   123  123  124 1   
   124  123  135 1   
   125  124  125 1   
   126  124  127 1   
   127  124  136 1   
   128  125  126 2   
   129  125  144 1   
   130  127  128 1   
   131  127  137 1   
   132  127  138 1   
   133  128  129 ar  
   134  128  130 ar  
   135  129  131 ar  
   136  129  139 1   
   137  130  132 ar  
   138  130  140 1   
   139  131  133 ar  
   140  131  141 1   
   141  132  133 ar  
   142  132  142 1   
   143  133  134 1   
   144  134  143 1   
   145  144  145 1   
   146  144  153 1   
   147  145  146 1   
   148  145  148 1   
   149  145  154 1   
   150  146  147 2   
   151  146  159 1   
   152  148  149 1   
   153  148  155 1   
   154  148  156 1   
   155  149  150 1   
   156  149  157 1   
   157  149  158 1   
   158  150  151 1   
   159  150  152 1   
   160  159  160 1   
   161  159  168 1   
   162  160  161 1   
   163  160  163 1   
   164  160  169 1   
   165  161  162 2   
   166  161  174 1   
   167  163  164 1   
   168  163  170 1   
   169  163  171 1   
   170  164  165 1   
   171  164  172 1   
   172  164  173 1   
   173  165  166 1   
   174  165  167 1   
   175  174  175 1   
   176  174  179 1   
   177  175  176 1   
   178  175  177 1   
   179  175  178 1   
   180  181  182 1   
   181  181  183 1   
   182  184  185 1   
   183  184  186 1   
   184  187  188 1   
   185  187  189 1   
   186  190  191 1   
   187  190  192 1   
   188  193  194 1   
   189  193  195 1   
@<TRIPOS>SUBSTRUCTURE
     1 MOL         1 TEMP              0 ****  ****    0 ROOT
