@<TRIPOS>MOLECULE
MOL
  188   182     1     0     0
SMALL
resp


@<TRIPOS>ATOM
      1 C1          5.9740    5.4460    0.8000 c3        1 MOL     -0.400202
      2 C2          6.9750    4.4100    1.3380 c         1 MOL      0.728977
      3 O1          6.7590    3.7900    2.3520 o         1 MOL     -0.603137
      4 H1          5.5000    5.9600    1.6360 hc        1 MOL      0.090000
      5 H2          6.4990    6.1710    0.1790 hc        1 MOL      0.090000
      6 H3          5.2120    4.9410    0.2050 hc        1 MOL      0.090000
      7 N1          7.9590    4.0930    0.5700 n         1 MOL     -0.587359
      8 C3          8.9740    3.0500    0.8930 c3        1 MOL      0.162532
      9 C4          8.5100    1.6070    0.4960 c         1 MOL      0.748717
     10 O2          7.7160    1.5330   -0.4210 o         1 MOL     -0.624539
     11 C5         10.3380    3.4000    0.3140 c3        1 MOL     -0.189834
     12 C6         11.5350    2.5640    0.8530 c         1 MOL      0.687717
     13 O3         12.6450    2.8050    0.3630 o         1 MOL     -0.675883
     14 O4         11.3970    1.6820    1.7400 o         1 MOL     -0.675883
     15 H4          7.9440    4.5050   -0.3500 hn        1 MOL      0.298541
     16 H5          9.0630    3.1250    1.9740 h1        1 MOL      0.041887
     17 H6         10.5780    4.4650    0.3850 hc        1 MOL      0.037356
     18 H7         10.3340    3.1100   -0.7290 hc        1 MOL      0.037356
     19 N2          8.9740    0.5570    1.1340 n         1 MOL     -0.701885
     20 C7          8.5410   -0.7960    0.8310 c3        1 MOL      0.415366
     21 C8          7.1090   -1.0300    1.1420 c         1 MOL      0.505084
     22 O5          6.5960   -0.7320    2.2520 o         1 MOL     -0.531323
     23 C9          9.4550   -1.8190    1.5880 c3        1 MOL     -0.110036
     24 C10         9.2840   -3.2650    1.1070 c3        1 MOL     -0.200594
     25 C11        10.1070   -4.2560    1.9480 c3        1 MOL      0.092941
     26 C12         9.9400   -5.7080    1.6290 c3        1 MOL      0.036162
     27 N3         10.8460   -6.5310    2.3880 n4        1 MOL     -0.218018
     28 H8          9.7070    0.7540    1.8120 hn        1 MOL      0.265199
     29 H9          8.6180   -0.9980   -0.2360 h1        1 MOL     -0.014314
     30 H10         9.2900   -1.7900    2.6640 hc        1 MOL      0.071963
     31 H11        10.4920   -1.5800    1.3400 hc        1 MOL      0.071963
     32 H12         9.6330   -3.2840    0.0730 hc        1 MOL      0.054845
     33 H13         8.2910   -3.7150    1.1660 hc        1 MOL      0.054845
     34 H14         9.9230   -4.1080    3.0120 hc        1 MOL      0.014559
     35 H15        11.1750   -4.0350    1.8810 hc        1 MOL      0.014559
     36 H16        10.1770   -5.9170    0.5830 hx        1 MOL      0.060035
     37 H17         8.9020   -5.9660    1.8080 hx        1 MOL      0.060035
     38 H18        11.0710   -7.3490    1.8480 hn        1 MOL      0.251496
     39 H19        11.6720   -6.0220    2.6790 hn        1 MOL      0.251496
     40 H20        10.4060   -6.8950    3.2200 hn        1 MOL      0.251496
     41 N4          6.4050   -1.5420    0.1510 n         1 MOL     -0.477021
     42 C13         4.9490   -1.8170    0.2550 c3        1 MOL      0.180728
     43 C14         4.2670   -2.9290   -0.6910 c         1 MOL      0.412971
     44 O6          4.5760   -3.1030   -1.8820 o         1 MOL     -0.454850
     45 C15         4.0950   -0.5490    0.0940 c3        1 MOL     -0.311485
     46 C16         2.5750   -0.7520    0.3820 c         1 MOL      0.707655
     47 O7          2.1400   -0.5300    1.5200 o         1 MOL     -0.692310
     48 O8          1.7850   -1.0790   -0.5430 o         1 MOL     -0.692310
     49 H21         6.8340   -1.8570   -0.7110 hn        1 MOL      0.262262
     50 H22         4.7650   -2.1220    1.2910 h1        1 MOL     -0.018145
     51 H23         4.1610   -0.1660   -0.9200 hc        1 MOL      0.125988
     52 H24         4.3630    0.1460    0.8870 hc        1 MOL      0.125988
     53 N5          3.4270   -3.7570   -0.0320 n         1 MOL     -0.399944
     54 C17         3.0280   -5.0460   -0.6520 c3        1 MOL     -0.085021
     55 C18         1.8940   -4.9760   -1.7230 c         1 MOL      0.465850
     56 O9          1.7640   -5.9160   -2.5330 o         1 MOL     -0.538644
     57 H25         3.3110   -3.5260    0.9480 hn        1 MOL      0.286098
     58 H26         2.7170   -5.7490    0.1200 h1        1 MOL      0.099265
     59 H27         3.9010   -5.5090   -1.1140 h1        1 MOL      0.099265
     60 N6          1.1940   -3.8360   -1.9200 n         1 MOL     -0.240569
     61 C19         0.2640   -3.6230   -3.0380 c3        1 MOL     -0.093456
     62 C20         0.7150   -2.3390   -3.7990 c         1 MOL      0.510309
     63 O10        -0.1220   -1.7330   -4.4940 o         1 MOL     -0.507211
     64 C21        -1.1740   -3.7490   -2.6000 c3        1 MOL     -0.222602
     65 C22        -1.6130   -2.7600   -1.5310 c         1 MOL      0.484145
     66 N7         -2.7920   -2.8630   -1.0700 n         1 MOL     -0.631511
     67 O11        -0.8690   -1.9290   -1.1100 o         1 MOL     -0.364916
     68 H28         1.2290   -3.1180   -1.2120 hn        1 MOL      0.172941
     69 H29         0.4580   -4.4380   -3.7340 h1        1 MOL      0.151287
     70 H30        -1.4890   -4.7320   -2.2630 hc        1 MOL      0.104657
     71 H31        -1.7660   -3.4670   -3.4700 hc        1 MOL      0.104657
     72 H32        -3.4150   -3.6440   -1.2450 hn        1 MOL      0.310698
     73 H33        -3.0570   -2.2790   -0.2870 hn        1 MOL      0.310698
     74 N8          1.9760   -1.8130   -3.5440 n         1 MOL     -0.286453
     75 C23         2.4880   -0.5740   -4.1540 c3        1 MOL     -0.210875
     76 C24         1.8810    0.8150   -3.8610 c         1 MOL      0.609882
     77 O12         1.9550    1.7500   -4.6330 o         1 MOL     -0.543397
     78 H34         2.5560   -2.1460   -2.7940 hn        1 MOL      0.208864
     79 H35         2.6490   -0.6560   -5.2340 h1        1 MOL      0.123361
     80 H36         3.4530   -0.4460   -3.6550 h1        1 MOL      0.123361
     81 N9          1.1960    0.9310   -2.6770 n         1 MOL     -0.458902
     82 C25         0.5150    2.2430   -2.4080 c3        1 MOL      0.111706
     83 C26        -0.7320    1.7950   -1.5560 c         1 MOL      0.394204
     84 O13        -0.7150    0.8470   -0.7460 o         1 MOL     -0.459767
     85 C27         1.4120    3.1850   -1.5940 c3        1 MOL     -0.275425
     86 C28         0.8290    4.4860   -1.0750 ca        1 MOL      0.113083
     87 C29         0.1090    5.4150   -1.8760 ca        1 MOL     -0.157348
     88 C30         1.2410    4.8820    0.2090 ca        1 MOL     -0.157348
     89 C31        -0.2100    6.6750   -1.4550 ca        1 MOL     -0.314694
     90 C32         0.9440    6.1720    0.6700 ca        1 MOL     -0.314694
     91 C33         0.1790    7.0430   -0.1240 ca        1 MOL      0.446883
     92 O14        -0.0270    8.2690    0.3260 oh        1 MOL     -0.501089
     93 H37         1.1160    0.1440   -2.0580 hn        1 MOL      0.244321
     94 H38         0.2210    2.7540   -3.3300 h1        1 MOL      0.079011
     95 H39         2.2660    3.4180   -2.2400 hc        1 MOL      0.124219
     96 H40         1.6870    2.6180   -0.7040 hc        1 MOL      0.124219
     97 H41        -0.1870    5.1610   -2.8770 ha        1 MOL      0.137462
     98 H42         1.8050    4.1830    0.8000 ha        1 MOL      0.137462
     99 H43        -0.7760    7.3370   -2.0980 ha        1 MOL      0.159980
    100 H44         1.3910    6.5000    1.5940 ha        1 MOL      0.159980
    101 H45         0.3110    8.4590    1.2100 ho        1 MOL      0.375418
    102 N10        -1.9390    2.3890   -1.7380 n         1 MOL     -0.361052
    103 C34        -3.1900    2.0940   -0.9750 c3        1 MOL      0.046041
    104 C35        -3.7270    0.7170   -1.4410 c         1 MOL     -0.015782
    105 O15        -4.1230   -0.1080   -0.6340 o         1 MOL     -0.462075
    106 C36        -4.1970    3.2680   -1.0740 c3        1 MOL      0.040283
    107 C37        -3.6170    4.5900   -0.5360 c3        1 MOL     -0.125405
    108 C38        -5.5970    2.9870   -0.4980 c3        1 MOL     -0.349879
    109 C39        -3.0430    4.5990    0.8680 c3        1 MOL     -0.040150
    110 H46        -2.0520    2.9570   -2.5570 hn        1 MOL      0.243874
    111 H47        -2.9720    1.9280    0.0790 h1        1 MOL      0.200588
    112 H48        -4.2920    3.4930   -2.1420 hc        1 MOL      0.009281
    113 H49        -4.4100    5.3280   -0.5860 hc        1 MOL      0.072547
    114 H50        -2.7960    4.9270   -1.1640 hc        1 MOL      0.072547
    115 H51        -6.1280    2.1810   -0.9950 hc        1 MOL      0.124106
    116 H52        -5.4260    2.6950    0.5320 hc        1 MOL      0.124106
    117 H53        -6.2700    3.8460   -0.4940 hc        1 MOL      0.124106
    118 H54        -2.6420    5.5560    1.2070 hc        1 MOL     -0.003594
    119 H55        -3.8500    4.3140    1.5410 hc        1 MOL     -0.003594
    120 H56        -2.2610    3.8520    1.0200 hc        1 MOL     -0.003594
    121 N11        -3.7970    0.5270   -2.7800 n         1 MOL      0.090099
    122 C40        -4.0720   -0.7510   -3.3980 c3        1 MOL     -0.529855
    123 C41        -5.4880   -1.3090   -3.1590 c         1 MOL      0.684292
    124 O16        -5.7300   -2.5020   -3.1040 o         1 MOL     -0.548476
    125 C42        -3.8740   -0.6900   -4.9060 c3        1 MOL      0.234453
    126 O17        -4.6430    0.3500   -5.4210 oh        1 MOL     -0.655573
    127 H57        -3.5950    1.3070   -3.3810 hn        1 MOL      0.237648
    128 H58        -3.2390   -1.4140   -3.1870 h1        1 MOL      0.249714
    129 H59        -4.1350   -1.5770   -5.4900 h1        1 MOL      0.037846
    130 H60        -2.8170   -0.5540   -5.1370 h1        1 MOL      0.037846
    131 H61        -4.7320    0.1660   -6.3610 ho        1 MOL      0.432766
    132 N12        -6.4650   -0.3580   -2.9360 n         1 MOL     -0.287347
    133 C43        -7.9470   -0.5940   -2.6560 c3        1 MOL      0.043499
    134 C44        -8.2690   -1.4380   -1.4310 c         1 MOL      0.535923
    135 O18        -9.4330   -1.7680   -1.0730 o         1 MOL     -0.546790
    136 C45        -8.5540   -1.1580   -3.9850 c3        1 MOL     -0.463840
    137 H62        -6.1290    0.5790   -3.0810 hn        1 MOL      0.216269
    138 H63        -8.3520    0.4020   -2.4660 h1        1 MOL      0.113386
    139 H64        -8.6460   -2.2420   -3.9650 hc        1 MOL      0.139869
    140 H65        -9.5580   -0.7200   -4.0120 hc        1 MOL      0.139869
    141 H66        -7.9900   -0.8830   -4.8800 hc        1 MOL      0.139869
    142 N13        -7.2140   -1.6030   -0.6550 n         1 MOL     -0.572944
    143 C46        -7.3850   -2.0880    0.7350 c3        1 MOL      0.374268
    144 C47        -7.8180   -0.9540    1.6060 c         1 MOL      0.311821
    145 O19        -7.3350    0.1840    1.4410 o         1 MOL     -0.455011
    146 C48        -6.0560   -2.6950    1.1730 c3        1 MOL      0.015054
    147 H67        -6.2810   -1.3700   -0.9750 hn        1 MOL      0.307195
    148 H68        -8.1480   -2.8590    0.7700 h1        1 MOL      0.003397
    149 H69        -5.9610   -2.7900    2.2530 hc        1 MOL     -0.017549
    150 H70        -6.0570   -3.6840    0.7250 hc        1 MOL     -0.017549
    151 H71        -5.1980   -2.1390    0.8000 hc        1 MOL     -0.017549
    152 N14        -8.7600   -1.1930    2.4870 n         1 MOL     -0.459223
    153 C49        -9.0530   -0.3370    3.6940 c3        1 MOL      0.045524
    154 C50        -9.2910    1.1430    3.4070 c         1 MOL      0.379466
    155 O20        -8.8630    2.0360    4.1350 o         1 MOL     -0.496149
    156 C51        -7.9660   -0.5310    4.7720 c3        1 MOL      0.030954
    157 C52        -7.7420   -2.0020    5.3060 c3        1 MOL     -0.178758
    158 C53        -6.3380   -2.0350    6.0280 c         1 MOL      0.677348
    159 O21        -5.3200   -1.6770    5.3180 o         1 MOL     -0.672723
    160 O22        -6.1430   -2.4200    7.1570 o         1 MOL     -0.672723
    161 H72        -9.0210   -2.1680    2.5090 hn        1 MOL      0.292907
    162 H73        -9.9870   -0.7130    4.1130 h1        1 MOL      0.049902
    163 H74        -8.1550    0.1040    5.6410 hc        1 MOL      0.032977
    164 H75        -7.0410   -0.0500    4.4400 hc        1 MOL      0.032977
    165 H76        -7.6680   -2.7310    4.5020 hc        1 MOL      0.018833
    166 H77        -8.5530   -2.3750    5.9320 hc        1 MOL      0.018833
    167 N15        -9.8040    1.3990    2.2490 n         1 MOL     -0.163168
    168 C54       -10.0660    2.8090    1.8070 c3        1 MOL     -0.307226
    169 H78       -10.9300    3.2020    2.3440 h1        1 MOL      0.124873
    170 H79        -9.1930    3.4260    2.0200 h1        1 MOL      0.124873
    171 H80       -10.2680    2.8230    0.7360 h1        1 MOL      0.124873
    172 H81       -10.3070    0.6310    1.8190 hn        1 MOL      0.228897
    173 Ca1        -0.3530   -0.6630    1.2910 Ca        1 MOL      1.708356
    174 O23         0.5240    1.8620    1.9090 oh        1 MOL     -0.858533
    175 H82         1.3920    2.0390    2.2640 ho        1 MOL      0.429508
    176 H83         0.0080    2.6380    2.1400 ho        1 MOL      0.429508
    177 O24         0.0070   -0.8610    3.9110 oh        1 MOL     -0.858533
    178 H84         0.5300   -1.3190    4.5630 ho        1 MOL      0.429508
    179 H85        -0.7270   -0.4960    4.4050 ho        1 MOL      0.429508
    180 O25        -2.6520   -1.7800    1.7700 oh        1 MOL     -0.858533
    181 H86        -3.4170   -1.2550    2.0070 ho        1 MOL      0.429508
    182 H87        -2.9530   -2.6920    1.8560 ho        1 MOL      0.429508
    183 O26        -2.2620    0.9080    2.5390 oh        1 MOL     -0.858533
    184 H88        -3.1600    0.7170    2.8060 ho        1 MOL      0.429508
    185 H89        -2.1780    1.8580    2.6490 ho        1 MOL      0.429508
    186 O27         0.7200   -3.1760    1.7660 oh        1 MOL     -0.858533
    187 H90         1.4150   -3.2050    2.4270 ho        1 MOL      0.429508
    188 H91         0.3300   -4.0560    1.7970 ho        1 MOL      0.429508
@<TRIPOS>BOND
     1    1    2 1   
     2    1    4 1   
     3    1    5 1   
     4    1    6 1   
     5    2    3 2   
     6    2    7 1   
     7    7    8 1   
     8    7   15 1   
     9    8    9 1   
    10    8   11 1   
    11    8   16 1   
    12    9   10 2   
    13    9   19 1   
    14   11   12 1   
    15   11   17 1   
    16   11   18 1   
    17   12   13 1   
    18   12   14 1   
    19   19   20 1   
    20   19   28 1   
    21   20   21 1   
    22   20   23 1   
    23   20   29 1   
    24   21   22 2   
    25   21   41 1   
    26   23   24 1   
    27   23   30 1   
    28   23   31 1   
    29   24   25 1   
    30   24   32 1   
    31   24   33 1   
    32   25   26 1   
    33   25   34 1   
    34   25   35 1   
    35   26   27 1   
    36   26   36 1   
    37   26   37 1   
    38   27   38 1   
    39   27   39 1   
    40   27   40 1   
    41   41   42 1   
    42   41   49 1   
    43   42   43 1   
    44   42   45 1   
    45   42   50 1   
    46   43   44 2   
    47   43   53 1   
    48   45   46 1   
    49   45   51 1   
    50   45   52 1   
    51   46   47 1   
    52   46   48 1   
    53   53   54 1   
    54   53   57 1   
    55   54   55 1   
    56   54   58 1   
    57   54   59 1   
    58   55   56 2   
    59   55   60 1   
    60   60   61 1   
    61   60   68 1   
    62   61   62 1   
    63   61   64 1   
    64   61   69 1   
    65   62   63 2   
    66   62   74 1   
    67   64   65 1   
    68   64   70 1   
    69   64   71 1   
    70   65   66 1   
    71   65   67 2   
    72   66   72 1   
    73   66   73 1   
    74   74   75 1   
    75   74   78 1   
    76   75   76 1   
    77   75   79 1   
    78   75   80 1   
    79   76   77 2   
    80   76   81 1   
    81   81   82 1   
    82   81   93 1   
    83   82   83 1   
    84   82   85 1   
    85   82   94 1   
    86   83   84 2   
    87   83  102 1   
    88   85   86 1   
    89   85   95 1   
    90   85   96 1   
    91   86   87 ar  
    92   86   88 ar  
    93   87   89 ar  
    94   87   97 1   
    95   88   90 ar  
    96   88   98 1   
    97   89   91 ar  
    98   89   99 1   
    99   90   91 ar  
   100   90  100 1   
   101   91   92 1   
   102   92  101 1   
   103  102  103 1   
   104  102  110 1   
   105  103  104 1   
   106  103  106 1   
   107  103  111 1   
   108  104  105 2   
   109  104  121 1   
   110  106  107 1   
   111  106  108 1   
   112  106  112 1   
   113  107  109 1   
   114  107  113 1   
   115  107  114 1   
   116  108  115 1   
   117  108  116 1   
   118  108  117 1   
   119  109  118 1   
   120  109  119 1   
   121  109  120 1   
   122  121  122 1   
   123  121  127 1   
   124  122  123 1   
   125  122  125 1   
   126  122  128 1   
   127  123  124 2   
   128  123  132 1   
   129  125  126 1   
   130  125  129 1   
   131  125  130 1   
   132  126  131 1   
   133  132  133 1   
   134  132  137 1   
   135  133  134 1   
   136  133  136 1   
   137  133  138 1   
   138  134  135 2   
   139  134  142 1   
   140  136  139 1   
   141  136  140 1   
   142  136  141 1   
   143  142  143 1   
   144  142  147 1   
   145  143  144 1   
   146  143  146 1   
   147  143  148 1   
   148  144  145 2   
   149  144  152 1   
   150  146  149 1   
   151  146  150 1   
   152  146  151 1   
   153  152  153 1   
   154  152  161 1   
   155  153  154 1   
   156  153  156 1   
   157  153  162 1   
   158  154  155 2   
   159  154  167 1   
   160  156  157 1   
   161  156  163 1   
   162  156  164 1   
   163  157  158 1   
   164  157  165 1   
   165  157  166 1   
   166  158  159 1   
   167  158  160 1   
   168  167  168 1   
   169  167  172 1   
   170  168  169 1   
   171  168  170 1   
   172  168  171 1   
   173  174  175 1   
   174  174  176 1   
   175  177  178 1   
   176  177  179 1   
   177  180  181 1   
   178  180  182 1   
   179  183  184 1   
   180  183  185 1   
   181  186  187 1   
   182  186  188 1   
@<TRIPOS>SUBSTRUCTURE
     1 MOL         1 TEMP              0 ****  ****    0 ROOT
