@<TRIPOS>MOLECULE
MOL
  181   177     1     0     0
SMALL
resp


@<TRIPOS>ATOM
      1 C1         10.2440    7.2100   -0.3210 c3        1 MOL     -0.434629
      2 C2          9.2660    6.0690   -0.0950 c         1 MOL      0.702765
      3 O1          8.2470    6.2380    0.5580 o         1 MOL     -0.584526
      4 H1          9.9910    8.0410    0.3380 hc        1 MOL      0.115259
      5 H2         11.2560    6.8710   -0.1030 hc        1 MOL      0.115259
      6 H3         10.1860    7.5390   -1.3580 hc        1 MOL      0.115259
      7 N1          9.5630    4.8380   -0.5100 n         1 MOL     -0.593214
      8 C3         10.5150    4.3200   -1.4370 c3        1 MOL      0.347275
      9 C4         11.7100    3.6540   -0.7190 c         1 MOL      0.346923
     10 O2         12.9150    3.7690   -1.0110 o         1 MOL     -0.552540
     11 C5          9.8090    3.4600   -2.5390 c3        1 MOL     -0.308307
     12 C6          8.7190    2.4310   -1.9970 c         1 MOL      0.547594
     13 O3          7.8610    1.9410   -2.7680 o         1 MOL     -0.631700
     14 O4          8.6430    2.0530   -0.7910 o         1 MOL     -0.631700
     15 H4          8.9350    4.1490   -0.1090 hn        1 MOL      0.342552
     16 H5         10.9780    5.0960   -2.0570 h1        1 MOL      0.002378
     17 H6         10.4830    2.8030   -3.0810 hc        1 MOL      0.094189
     18 H7          9.4260    4.1250   -3.3210 hc        1 MOL      0.094189
     19 N2         11.4370    2.9460    0.3860 n         1 MOL     -0.391241
     20 C7         12.3550    2.0380    1.0240 c3        1 MOL      0.420370
     21 C8         11.7700    0.5900    1.2560 c         1 MOL      0.154257
     22 O5         12.4510   -0.2540    1.8360 o         1 MOL     -0.505548
     23 C9         12.8920    2.6490    2.3450 c3        1 MOL     -0.321059
     24 H8         10.4490    2.9230    0.5730 hn        1 MOL      0.226757
     25 H9         13.2690    1.8990    0.4610 h1        1 MOL      0.033208
     26 H10        12.8110    3.7360    2.3880 hc        1 MOL      0.078912
     27 H11        12.3750    2.1950    3.1910 hc        1 MOL      0.078912
     28 H12        13.9030    2.2630    2.4240 hc        1 MOL      0.078912
     29 N3         10.5830    0.2880    0.8110 n         1 MOL     -0.004835
     30 C10        10.0710   -1.0730    0.9010 c3        1 MOL      0.041889
     31 C11         9.4290   -1.6240   -0.4520 c         1 MOL      0.335345
     32 O6          9.0520   -0.8870   -1.3590 o         1 MOL     -0.499771
     33 C12         9.0960   -1.1990    2.0910 c3        1 MOL     -0.123288
     34 C13         7.9760   -0.2200    2.0120 c         1 MOL      0.640651
     35 O7          7.9340    0.7480    2.7630 o         1 MOL     -0.672127
     36 O8          7.0850   -0.2150    1.0860 o         1 MOL     -0.672127
     37 H13        10.0920    0.9850    0.2710 hn        1 MOL      0.112595
     38 H14        10.9470   -1.6910    1.1020 h1        1 MOL      0.035962
     39 H15         9.6640   -1.1690    3.0080 hc        1 MOL      0.031323
     40 H16         8.6340   -2.1840    2.1560 hc        1 MOL      0.031323
     41 N4          9.1920   -2.9100   -0.5160 n         1 MOL     -0.239318
     42 C14         8.3410   -3.6840   -1.5100 c3        1 MOL     -0.316368
     43 C15         6.8750   -3.3830   -1.4320 c         1 MOL      0.807775
     44 O9          6.5370   -2.2430   -1.3000 o         1 MOL     -0.616771
     45 H17         9.5160   -3.4070    0.3010 hn        1 MOL      0.240701
     46 H18         8.4200   -4.7470   -1.2900 h1        1 MOL      0.132914
     47 H19         8.7720   -3.5750   -2.4990 h1        1 MOL      0.132914
     48 N5          6.0140   -4.3940   -1.5780 n         1 MOL     -0.736563
     49 C16         4.5830   -4.3540   -1.7710 c3        1 MOL      0.674915
     50 C17         3.7740   -4.3990   -0.4570 c         1 MOL      0.399410
     51 O10         4.3810   -4.7200    0.5500 o         1 MOL     -0.495626
     52 C18         4.1420   -5.4040   -2.8480 c3        1 MOL     -0.628901
     53 C19         2.7730   -5.1440   -3.5530 c         1 MOL      0.773275
     54 N6          2.3590   -6.1390   -4.3220 n         1 MOL     -0.833096
     55 O11         2.1590   -4.0830   -3.4450 o         1 MOL     -0.527725
     56 H20         6.3210   -5.3500   -1.6010 hn        1 MOL      0.305325
     57 H21         4.4840   -3.3800   -2.2480 h1        1 MOL     -0.085121
     58 H22         4.0740   -6.3210   -2.2670 hc        1 MOL      0.128933
     59 H23         4.9130   -5.4020   -3.6270 hc        1 MOL      0.128933
     60 H24         3.0830   -6.8270   -4.4830 hn        1 MOL      0.392270
     61 H25         1.4640   -6.1230   -4.7910 hn        1 MOL      0.392270
     62 N7          2.5050   -4.0140   -0.3740 n         1 MOL     -0.473542
     63 C20         1.7060   -4.0320    0.8100 c3        1 MOL      0.014605
     64 C21         1.7380   -2.6820    1.5400 c         1 MOL      0.658796
     65 O12         2.6950   -1.9500    1.4290 o         1 MOL     -0.555304
     66 H26         2.1800   -3.5170   -1.1910 hn        1 MOL      0.252102
     67 H27         1.9950   -4.8010    1.5230 h1        1 MOL      0.108122
     68 H28         0.6670   -4.1440    0.5080 h1        1 MOL      0.108122
     69 N8          0.7800   -2.4050    2.4090 n         1 MOL     -0.694110
     70 C22        -0.4380   -3.2240    2.8640 c3        1 MOL      0.462237
     71 C23        -1.7970   -2.6340    2.4780 c         1 MOL      0.507557
     72 O13        -2.6600   -3.4680    2.2670 o         1 MOL     -0.540638
     73 C24        -0.4050   -3.6730    4.3520 c3        1 MOL      0.311910
     74 C25        -1.4880   -4.6880    4.7290 c3        1 MOL     -0.650797
     75 O14         0.8700   -4.0990    4.7060 oh        1 MOL     -0.621780
     76 H29         0.8580   -1.5070    2.8690 hn        1 MOL      0.339817
     77 H30        -0.3440   -4.1920    2.3700 h1        1 MOL     -0.084962
     78 H31        -0.4910   -2.7810    4.9770 h1        1 MOL      0.013281
     79 H32         0.7190   -4.8650    5.2630 ho        1 MOL      0.380383
     80 H33        -1.2390   -5.1370    5.6890 hc        1 MOL      0.169808
     81 H34        -2.4900   -4.2810    4.8540 hc        1 MOL      0.169808
     82 H35        -1.5650   -5.4560    3.9550 hc        1 MOL      0.169808
     83 N9         -1.9010   -1.3150    2.2570 n         1 MOL     -0.694803
     84 C26        -3.2060   -0.5990    2.1790 c3        1 MOL      0.415849
     85 C27        -3.3230    0.1210    0.7740 c         1 MOL      0.530593
     86 O15        -2.3820    0.8520    0.4520 o         1 MOL     -0.597144
     87 C28        -3.2840    0.4850    3.3430 c3        1 MOL      0.141424
     88 C29        -2.9160    0.0030    4.7600 c3        1 MOL     -0.017331
     89 C30        -4.6630    1.2000    3.4100 c3        1 MOL     -0.280278
     90 C31        -3.6580   -1.2920    5.3270 c3        1 MOL     -0.244075
     91 H36        -1.1030   -0.7280    2.4600 hn        1 MOL      0.289693
     92 H37        -3.9560   -1.3780    2.3000 h1        1 MOL      0.005740
     93 H38        -2.5160    1.2310    3.1280 hc        1 MOL     -0.045041
     94 H39        -3.0760    0.8490    5.4330 hc        1 MOL      0.004084
     95 H40        -1.8740   -0.3290    4.7330 hc        1 MOL      0.004084
     96 H41        -4.7620    1.8450    4.2850 hc        1 MOL      0.071078
     97 H42        -4.8010    1.7180    2.4610 hc        1 MOL      0.071078
     98 H43        -5.4440    0.4510    3.4770 hc        1 MOL      0.071078
     99 H44        -3.0320   -1.5290    6.1840 hc        1 MOL      0.061467
    100 H45        -4.6400   -1.0320    5.7070 hc        1 MOL      0.061467
    101 H46        -3.6070   -2.0650    4.5510 hc        1 MOL      0.061467
    102 N10        -4.4380    0.0980    0.0430 n         1 MOL     -0.410797
    103 C32        -5.5520   -0.8210    0.2970 c3        1 MOL      0.003884
    104 C33        -6.8120   -0.3290   -0.4190 c         1 MOL      0.717721
    105 O16        -6.8260    0.6700   -1.1220 o         1 MOL     -0.521617
    106 C34        -5.0930   -2.2170   -0.1670 c3        1 MOL     -0.240471
    107 C35        -4.8020   -2.3000   -1.6860 c         1 MOL      0.741623
    108 O17        -5.7150   -2.5020   -2.5490 o         1 MOL     -0.722062
    109 O18        -3.6330   -2.2090   -2.0360 o         1 MOL     -0.722062
    110 H47        -4.5060    0.6270   -0.8090 hn        1 MOL      0.307592
    111 H48        -5.7840   -0.8100    1.3620 h1        1 MOL      0.053557
    112 H49        -5.8640   -2.9550    0.0770 hc        1 MOL      0.031218
    113 H50        -4.2060   -2.3960    0.4330 hc        1 MOL      0.031218
    114 N11        -7.9250   -1.1220   -0.1780 n         1 MOL     -0.863317
    115 C36        -9.2240   -0.6670   -0.7080 c3        1 MOL      0.532262
    116 C37       -10.1430    0.0690    0.3330 c         1 MOL      0.060181
    117 O19       -10.0680   -0.1730    1.5560 o         1 MOL     -0.497683
    118 C38        -9.9450   -2.0280   -1.0050 c3        1 MOL     -0.104583
    119 C39       -11.2150   -1.8130   -1.7990 ca        1 MOL      0.061165
    120 C40       -12.4590   -2.0340   -1.2050 ca        1 MOL     -0.186744
    121 C41       -11.1610   -1.2690   -3.1390 ca        1 MOL     -0.186744
    122 C42       -13.6600   -1.8070   -1.9650 ca        1 MOL     -0.109537
    123 C43       -12.3460   -1.1310   -3.8830 ca        1 MOL     -0.109537
    124 C44       -13.6340   -1.4210   -3.3220 ca        1 MOL     -0.143949
    125 H51        -7.8790   -1.8460    0.5150 hn        1 MOL      0.410310
    126 H52        -9.2130   -0.0270   -1.5970 h1        1 MOL     -0.021392
    127 H53       -10.1430   -2.7640   -0.2230 hc        1 MOL      0.047869
    128 H54        -9.3180   -2.6260   -1.6720 hc        1 MOL      0.047869
    129 H55       -12.5390   -2.4800   -0.2230 ha        1 MOL      0.131772
    130 H56       -10.1950   -1.2850   -3.6360 ha        1 MOL      0.131772
    131 H57       -14.6190   -1.9470   -1.4900 ha        1 MOL      0.104497
    132 H58       -12.1510   -0.8350   -4.9080 ha        1 MOL      0.104497
    133 H59       -14.5510   -1.3400   -3.8990 ha        1 MOL      0.105000
    134 N12       -11.0320    0.9850   -0.0450 n         1 MOL      0.368422
    135 C45       -11.1080    1.7160   -1.3190 c3        1 MOL      0.039917
    136 C46        -9.7840    2.5490   -1.4540 c         1 MOL      0.434913
    137 O20        -9.3170    2.7150   -2.5580 o         1 MOL     -0.573261
    138 C47       -12.4120    2.5660   -1.3180 c3        1 MOL     -0.122867
    139 C48       -13.2050    1.7230   -0.2960 c3        1 MOL      0.120079
    140 C49       -12.1710    1.2950    0.7460 c3        1 MOL     -0.056071
    141 H60       -11.2030    1.0500   -2.1670 h1        1 MOL      0.039347
    142 H61       -12.2030    3.4950   -0.7910 hc        1 MOL      0.036797
    143 H62       -12.9820    2.5480   -2.2430 hc        1 MOL      0.036797
    144 H63       -14.0610    2.2890    0.0810 hc        1 MOL     -0.048038
    145 H64       -13.6270    0.8040   -0.7180 hc        1 MOL     -0.048038
    146 H65       -11.8990    1.9960    1.5260 h1        1 MOL      0.012093
    147 H66       -12.5270    0.3460    1.1670 h1        1 MOL      0.012093
    148 N13        -9.3020    3.1950   -0.4130 n         1 MOL     -0.365609
    149 C50        -7.9900    3.7920   -0.2420 c3        1 MOL      0.334393
    150 C51        -7.8350    5.0700   -1.0240 c         1 MOL      0.331083
    151 O21        -8.4740    6.0750   -0.6820 o         1 MOL     -0.584945
    152 C52        -7.7080    4.1020    1.2980 c3        1 MOL     -0.044348
    153 C53        -7.7440    2.7240    2.0760 c3        1 MOL      0.147770
    154 C54        -7.6390    2.8400    3.6060 c         1 MOL      0.715573
    155 O22        -8.5670    2.3250    4.2800 o         1 MOL     -0.736332
    156 O23        -6.8980    3.6880    4.2180 o         1 MOL     -0.736332
    157 H67        -9.8470    3.0720    0.4280 hn        1 MOL      0.206762
    158 H68        -7.1500    3.1450   -0.4920 h1        1 MOL      0.002817
    159 H69        -8.4070    4.7800    1.7850 hc        1 MOL     -0.007944
    160 H70        -6.7410    4.5940    1.3910 hc        1 MOL     -0.007944
    161 H71        -6.9260    2.1190    1.6700 hc        1 MOL     -0.135252
    162 H72        -8.6650    2.2130    1.8000 hc        1 MOL     -0.135252
    163 N14        -7.3460    5.0600   -2.2650 n         1 MOL     -0.190933
    164 C55        -6.4220    4.1870   -2.9790 c3        1 MOL     -0.160331
    165 H73        -6.4290    3.1980   -2.5200 h1        1 MOL      0.076076
    166 H74        -6.7310    4.1050   -4.0220 h1        1 MOL      0.076076
    167 H75        -5.4160    4.6030   -2.9300 h1        1 MOL      0.076076
    168 H76        -7.5330    5.9190   -2.7610 hn        1 MOL      0.214266
    169 Ca1         6.4960    0.4650   -1.3650 Ca        1 MOL      1.810963
    170 O24         5.6410    2.2320    0.2680 oh        1 MOL     -0.896192
    171 H77         4.8700    1.9430    0.7680 ho        1 MOL      0.434900
    172 H78         6.0250    2.9300    0.7980 ho        1 MOL      0.434900
    173 O25         6.5450   -0.6310   -3.7250 oh        1 MOL     -0.896192
    174 H79         6.4300   -1.5560   -3.9430 ho        1 MOL      0.434900
    175 H80         6.6430   -0.1910   -4.5730 ho        1 MOL      0.434900
    176 O26         4.6300    1.7500   -2.9820 oh        1 MOL     -0.896192
    177 H81         4.4950    2.1410   -3.8400 ho        1 MOL      0.434900
    178 H82         3.7770    1.8160   -2.5460 ho        1 MOL      0.434900
    179 O27         4.2630   -0.7180   -0.5520 oh        1 MOL     -0.896192
    180 H83         3.9800   -1.2290    0.2020 ho        1 MOL      0.434900
    181 H84         3.6200   -0.9030   -1.2230 ho        1 MOL      0.434900
@<TRIPOS>BOND
     1    1    2 1   
     2    1    4 1   
     3    1    5 1   
     4    1    6 1   
     5    2    3 2   
     6    2    7 1   
     7    7    8 1   
     8    7   15 1   
     9    8    9 1   
    10    8   11 1   
    11    8   16 1   
    12    9   10 2   
    13    9   19 1   
    14   11   12 1   
    15   11   17 1   
    16   11   18 1   
    17   12   13 1   
    18   12   14 1   
    19   19   20 1   
    20   19   24 1   
    21   20   21 1   
    22   20   23 1   
    23   20   25 1   
    24   21   22 2   
    25   21   29 1   
    26   23   26 1   
    27   23   27 1   
    28   23   28 1   
    29   29   30 1   
    30   29   37 1   
    31   30   31 1   
    32   30   33 1   
    33   30   38 1   
    34   31   32 2   
    35   31   41 1   
    36   33   34 1   
    37   33   39 1   
    38   33   40 1   
    39   34   35 1   
    40   34   36 1   
    41   41   42 1   
    42   41   45 1   
    43   42   43 1   
    44   42   46 1   
    45   42   47 1   
    46   43   44 2   
    47   43   48 1   
    48   48   49 1   
    49   48   56 1   
    50   49   50 1   
    51   49   52 1   
    52   49   57 1   
    53   50   51 2   
    54   50   62 1   
    55   52   53 1   
    56   52   58 1   
    57   52   59 1   
    58   53   54 1   
    59   53   55 2   
    60   54   60 1   
    61   54   61 1   
    62   62   63 1   
    63   62   66 1   
    64   63   64 1   
    65   63   67 1   
    66   63   68 1   
    67   64   65 2   
    68   64   69 1   
    69   69   70 1   
    70   69   76 1   
    71   70   71 1   
    72   70   73 1   
    73   70   77 1   
    74   71   72 2   
    75   71   83 1   
    76   73   74 1   
    77   73   75 1   
    78   73   78 1   
    79   74   80 1   
    80   74   81 1   
    81   74   82 1   
    82   75   79 1   
    83   83   84 1   
    84   83   91 1   
    85   84   85 1   
    86   84   87 1   
    87   84   92 1   
    88   85   86 2   
    89   85  102 1   
    90   87   88 1   
    91   87   89 1   
    92   87   93 1   
    93   88   90 1   
    94   88   94 1   
    95   88   95 1   
    96   89   96 1   
    97   89   97 1   
    98   89   98 1   
    99   90   99 1   
   100   90  100 1   
   101   90  101 1   
   102  102  103 1   
   103  102  110 1   
   104  103  104 1   
   105  103  106 1   
   106  103  111 1   
   107  104  105 2   
   108  104  114 1   
   109  106  107 1   
   110  106  112 1   
   111  106  113 1   
   112  107  108 1   
   113  107  109 1   
   114  114  115 1   
   115  114  125 1   
   116  115  116 1   
   117  115  118 1   
   118  115  126 1   
   119  116  117 2   
   120  116  134 1   
   121  118  119 1   
   122  118  127 1   
   123  118  128 1   
   124  119  120 ar  
   125  119  121 ar  
   126  120  122 ar  
   127  120  129 1   
   128  121  123 ar  
   129  121  130 1   
   130  122  124 ar  
   131  122  131 1   
   132  123  124 ar  
   133  123  132 1   
   134  124  133 1   
   135  134  135 1   
   136  134  140 1   
   137  135  136 1   
   138  135  138 1   
   139  135  141 1   
   140  136  137 2   
   141  136  148 1   
   142  138  139 1   
   143  138  142 1   
   144  138  143 1   
   145  139  140 1   
   146  139  144 1   
   147  139  145 1   
   148  140  146 1   
   149  140  147 1   
   150  148  149 1   
   151  148  157 1   
   152  149  150 1   
   153  149  152 1   
   154  149  158 1   
   155  150  151 2   
   156  150  163 1   
   157  152  153 1   
   158  152  159 1   
   159  152  160 1   
   160  153  154 1   
   161  153  161 1   
   162  153  162 1   
   163  154  155 1   
   164  154  156 1   
   165  163  164 1   
   166  163  168 1   
   167  164  165 1   
   168  164  166 1   
   169  164  167 1   
   170  170  171 1   
   171  170  172 1   
   172  173  174 1   
   173  173  175 1   
   174  176  177 1   
   175  176  178 1   
   176  179  180 1   
   177  179  181 1   
@<TRIPOS>SUBSTRUCTURE
     1 MOL         1 TEMP              0 ****  ****    0 ROOT
