@<TRIPOS>MOLECULE
MOL
  181   177     1     0     0
SMALL
resp


@<TRIPOS>ATOM
      1 C1         -1.5040   -5.7620   -2.9860 c3        1 MOL     -0.420399
      2 C2         -2.8650   -6.0820   -2.3430 c         1 MOL      0.714801
      3 O1         -2.8670   -6.7630   -1.3290 o         1 MOL     -0.586197
      4 H1         -1.6080   -4.8970   -3.6420 hc        1 MOL      0.105810
      5 H2         -0.7760   -5.5390   -2.2050 hc        1 MOL      0.105810
      6 H3         -1.1650   -6.6200   -3.5670 hc        1 MOL      0.105810
      7 N1         -4.0020   -5.7170   -2.9250 n         1 MOL     -0.647698
      8 C3         -5.3410   -5.9920   -2.3390 c3        1 MOL      0.350578
      9 C4         -5.7640   -4.9230   -1.2360 c         1 MOL      0.512178
     10 O2         -6.6820   -4.1130   -1.4580 o         1 MOL     -0.527519
     11 C5         -6.2800   -5.8980   -3.6220 c3        1 MOL     -0.377537
     12 C6         -7.7790   -6.1020   -3.2340 c         1 MOL      0.810640
     13 O3         -8.0410   -7.0020   -2.4020 o         1 MOL     -0.753162
     14 O4         -8.7320   -5.5890   -3.8930 o         1 MOL     -0.753162
     15 H4         -3.9020   -5.3240   -3.8520 hn        1 MOL      0.321527
     16 H5         -5.3920   -6.9580   -1.8560 h1        1 MOL      0.015793
     17 H6         -5.9470   -6.7130   -4.2500 hc        1 MOL      0.042681
     18 H7         -6.1650   -4.9420   -4.1330 hc        1 MOL      0.042681
     19 N2         -5.1110   -5.0700   -0.1220 n         1 MOL     -0.717316
     20 C7         -5.2050   -4.1860    0.9750 c3        1 MOL      0.682013
     21 C8         -3.8700   -3.9620    1.6320 c         1 MOL      0.382373
     22 O5         -3.0200   -4.8880    1.5000 o         1 MOL     -0.540539
     23 C9         -6.3100   -4.6660    1.9260 c3        1 MOL     -0.270234
     24 H8         -4.4670   -5.8480   -0.0890 hn        1 MOL      0.328978
     25 H9         -5.6200   -3.2170    0.7290 h1        1 MOL     -0.106223
     26 H10        -5.9920   -5.5280    2.5120 hc        1 MOL      0.058204
     27 H11        -6.4590   -3.8930    2.6770 hc        1 MOL      0.058204
     28 H12        -7.2550   -4.7910    1.3980 hc        1 MOL      0.058204
     29 N3         -3.5060   -2.8600    2.3010 n         1 MOL     -0.464365
     30 C10        -4.3320   -1.7220    2.6420 c3        1 MOL      0.002253
     31 C11        -3.8730   -0.4160    1.9680 c         1 MOL      0.572234
     32 O6         -2.7320   -0.2080    1.4810 o         1 MOL     -0.633235
     33 C12        -4.2920   -1.5240    4.1760 c3        1 MOL     -0.237782
     34 C13        -2.8870   -1.5510    4.8200 c         1 MOL      0.769922
     35 O7         -1.9320   -1.1050    4.1220 o         1 MOL     -0.698688
     36 O8         -2.7570   -1.9390    6.0190 o         1 MOL     -0.698688
     37 H13        -2.5950   -2.7990    2.7380 hn        1 MOL      0.344985
     38 H14        -5.3480   -1.9390    2.2940 h1        1 MOL      0.091086
     39 H15        -4.8050   -2.3450    4.6810 hc        1 MOL      0.035077
     40 H16        -4.7670   -0.5810    4.4260 hc        1 MOL      0.035077
     41 N4         -4.8260    0.5390    2.0250 n         1 MOL     -0.434805
     42 C14        -4.7950    1.9070    1.5200 c3        1 MOL      0.119151
     43 C15        -6.0800    2.1780    0.6840 c         1 MOL      0.580148
     44 O9         -6.9690    1.3480    0.6140 o         1 MOL     -0.509335
     45 H17        -5.7780    0.2350    2.1900 hn        1 MOL      0.269634
     46 H18        -3.8710    2.1350    0.9940 h1        1 MOL      0.023901
     47 H19        -4.8810    2.5870    2.3780 h1        1 MOL      0.023901
     48 N5         -6.1120    3.3420    0.0390 n         1 MOL     -0.549501
     49 C16        -5.1850    4.5260    0.1000 c3        1 MOL      0.020437
     50 C17        -4.6570    5.0730   -1.2520 c         1 MOL      0.443773
     51 O10        -4.2350    6.2510   -1.3130 o         1 MOL     -0.479514
     52 C18        -5.9230    5.6300    0.8760 c3        1 MOL     -0.024688
     53 C19        -6.2570    5.3570    2.2610 c         1 MOL      0.570478
     54 N6         -5.2800    5.5320    3.1340 n         1 MOL     -0.785844
     55 O11        -7.3870    4.8510    2.5190 o         1 MOL     -0.539373
     56 H20        -6.7950    3.4800   -0.7010 hn        1 MOL      0.310845
     57 H21        -4.2680    4.2210    0.6060 h1        1 MOL      0.076537
     58 H22        -6.8580    5.9210    0.4050 hc        1 MOL      0.029204
     59 H23        -5.3330    6.5470    0.8900 hc        1 MOL      0.029204
     60 H24        -4.4100    5.9140    2.7790 hn        1 MOL      0.378339
     61 H25        -5.4850    5.2640    4.0940 hn        1 MOL      0.378339
     62 N7         -4.5390    4.1760   -2.2570 n         1 MOL     -0.180530
     63 C20        -4.2510    4.6450   -3.5950 c3        1 MOL     -0.260249
     64 C21        -2.7630    5.0160   -3.8090 c         1 MOL      0.570888
     65 O12        -2.4160    5.6370   -4.8170 o         1 MOL     -0.557349
     66 H26        -4.9480    3.2630   -2.1000 hn        1 MOL      0.222760
     67 H27        -4.9190    5.4930   -3.7730 h1        1 MOL      0.135522
     68 H28        -4.5280    3.8480   -4.2820 h1        1 MOL      0.135522
     69 N8         -1.8950    4.6220   -2.8910 n         1 MOL     -0.326165
     70 C22        -0.5100    5.1430   -2.8100 c3        1 MOL     -0.013190
     71 C23         0.3750    4.0330   -2.2800 c         1 MOL      0.428655
     72 O13        -0.0170    3.1400   -1.5380 o         1 MOL     -0.497168
     73 C24        -0.5590    6.3000   -1.7920 c3        1 MOL      0.455713
     74 C25        -1.1290    7.5710   -2.4760 c3        1 MOL     -0.463145
     75 O14        -1.1860    6.0460   -0.5600 oh        1 MOL     -0.604952
     76 H29        -2.2010    4.0970   -2.0860 hn        1 MOL      0.156946
     77 H30        -0.1740    5.4870   -3.7910 h1        1 MOL      0.082882
     78 H31         0.4790    6.5870   -1.5830 h1        1 MOL     -0.044286
     79 H32        -0.5200    5.7680    0.0780 ho        1 MOL      0.399837
     80 H33        -1.0400    8.3460   -1.7180 hc        1 MOL      0.122531
     81 H34        -0.5200    7.8560   -3.3290 hc        1 MOL      0.122531
     82 H35        -2.1700    7.4700   -2.7770 hc        1 MOL      0.122531
     83 N9          1.6630    4.0880   -2.6060 n         1 MOL     -0.318535
     84 C26         2.7570    3.1760   -2.1710 c3        1 MOL     -0.056826
     85 C27         3.3250    3.7500   -0.8780 c         1 MOL      0.471637
     86 O15         3.5040    4.9460   -0.7910 o         1 MOL     -0.548449
     87 C28         3.7750    2.9320   -3.3320 c3        1 MOL      0.156013
     88 C29         5.0270    2.1140   -2.9910 c3        1 MOL      0.143257
     89 C30         3.1880    2.2780   -4.5640 c3        1 MOL     -0.216041
     90 C31         6.1130    1.9480   -4.0540 c3        1 MOL     -0.288100
     91 H36         1.9020    5.0260   -2.9000 hn        1 MOL      0.219412
     92 H37         2.3340    2.2050   -1.8840 h1        1 MOL      0.158692
     93 H38         4.1420    3.9060   -3.6560 hc        1 MOL     -0.017905
     94 H39         4.7580    1.1370   -2.5750 hc        1 MOL     -0.044800
     95 H40         5.3980    2.5830   -2.0810 hc        1 MOL     -0.044800
     96 H41         2.8960    1.2450   -4.3820 hc        1 MOL      0.042289
     97 H42         2.3470    2.9080   -4.8360 hc        1 MOL      0.042289
     98 H43         3.8190    2.3170   -5.4450 hc        1 MOL      0.042289
     99 H44         6.9250    1.3740   -3.6000 hc        1 MOL      0.067329
    100 H45         5.8020    1.5190   -5.0020 hc        1 MOL      0.067329
    101 H46         6.5260    2.9470   -4.2280 hc        1 MOL      0.067329
    102 N10         3.6020    2.8460    0.0820 n         1 MOL     -0.329671
    103 C32         4.2060    3.1530    1.4130 c3        1 MOL      0.002062
    104 C33         5.2620    2.1400    1.7150 c         1 MOL      0.539523
    105 O16         6.0980    2.2860    2.5800 o         1 MOL     -0.559521
    106 C34         3.1910    3.4090    2.4960 c3        1 MOL     -0.027862
    107 C35         2.0550    2.4640    2.7920 c         1 MOL      0.681044
    108 O17         2.2140    1.2550    2.9510 o         1 MOL     -0.753425
    109 O18         0.8430    2.8710    2.7810 o         1 MOL     -0.753425
    110 H47         3.4760    1.8720   -0.1480 hn        1 MOL      0.323653
    111 H48         4.7560    4.0810    1.2940 h1        1 MOL      0.081688
    112 H49         2.7460    4.3680    2.2570 hc        1 MOL      0.019086
    113 H50         3.6980    3.6920    3.4250 hc        1 MOL      0.019086
    114 N11         5.3230    1.0310    0.9300 n         1 MOL     -0.434557
    115 C36         6.1510   -0.1490    1.2200 c3        1 MOL      0.325776
    116 C37         5.5960   -1.5100    0.7270 c         1 MOL      0.348918
    117 O19         6.0770   -2.1130   -0.2760 o         1 MOL     -0.459196
    118 C38         7.5800    0.1090    0.5910 c3        1 MOL     -0.386879
    119 C39         8.6500   -0.9590    0.7880 ca        1 MOL      0.120726
    120 C40         8.8700   -1.9700   -0.1720 ca        1 MOL     -0.129488
    121 C41         9.3540   -0.9620    1.9820 ca        1 MOL     -0.129488
    122 C42         9.8230   -2.9800    0.1110 ca        1 MOL     -0.183169
    123 C43        10.3200   -1.9630    2.2170 ca        1 MOL     -0.183169
    124 C44        10.4670   -3.0140    1.3460 ca        1 MOL     -0.047612
    125 H51         4.6170    0.9410    0.2120 hn        1 MOL      0.150846
    126 H52         6.2550   -0.2660    2.2960 h1        1 MOL      0.023657
    127 H53         7.9190    1.0730    0.9610 hc        1 MOL      0.124704
    128 H54         7.5630    0.3420   -0.4810 hc        1 MOL      0.124704
    129 H55         8.2870   -2.0300   -1.0750 ha        1 MOL      0.112228
    130 H56         9.0980   -0.2260    2.7300 ha        1 MOL      0.112228
    131 H57         9.9280   -3.8410   -0.5270 ha        1 MOL      0.111405
    132 H58        10.8790   -1.9070    3.1390 ha        1 MOL      0.111405
    133 H59        11.1160   -3.8240    1.6450 ha        1 MOL      0.079062
    134 N12         4.5350   -2.0470    1.3950 n         1 MOL     -0.164973
    135 C45         4.0670   -3.4260    1.1320 c3        1 MOL     -0.035630
    136 C46         3.4030   -3.7190   -0.1580 c         1 MOL      0.213954
    137 O20         3.0280   -4.8790   -0.4260 o         1 MOL     -0.474511
    138 C47         3.1430   -3.7410    2.3130 c3        1 MOL     -0.062166
    139 C48         3.3790   -2.6270    3.3210 c3        1 MOL      0.000212
    140 C49         3.7610   -1.4490    2.4690 c3        1 MOL     -0.113609
    141 H60         4.9820   -4.0190    1.1460 h1        1 MOL      0.126824
    142 H61         2.1070   -3.7570    1.9700 hc        1 MOL      0.055339
    143 H62         3.4380   -4.6590    2.8080 hc        1 MOL      0.055339
    144 H63         2.5350   -2.4510    3.9780 hc        1 MOL      0.009891
    145 H64         4.2110   -2.9170    3.9740 hc        1 MOL      0.009891
    146 H65         2.8860   -0.9780    2.0200 h1        1 MOL      0.126182
    147 H66         4.3130   -0.7710    3.1210 h1        1 MOL      0.126182
    148 N13         3.3210   -2.7020   -1.0260 n         1 MOL     -0.123681
    149 C50         2.7970   -2.7480   -2.3960 c3        1 MOL     -0.039034
    150 C51         3.8400   -3.0750   -3.4070 c         1 MOL      0.418030
    151 O21         3.5750   -3.8000   -4.4050 o         1 MOL     -0.559687
    152 C52         2.2590   -1.3660   -2.7970 c3        1 MOL      0.112338
    153 C53         1.1970   -0.8350   -1.8630 c3        1 MOL     -0.029065
    154 C54         1.7070   -0.2740   -0.4960 c         1 MOL      0.572537
    155 O22         0.9420   -0.3130    0.4840 o         1 MOL     -0.710767
    156 O23         2.9060    0.1200   -0.4580 o         1 MOL     -0.710767
    157 H67         3.5020   -1.7790   -0.6770 hn        1 MOL      0.365709
    158 H68         1.9400   -3.4010   -2.5520 h1        1 MOL      0.081639
    159 H69         1.7320   -1.4800   -3.7490 hc        1 MOL     -0.033444
    160 H70         3.0050   -0.5690   -2.8210 hc        1 MOL     -0.033444
    161 H71         0.4650   -1.6160   -1.6580 hc        1 MOL      0.007339
    162 H72         0.6240   -0.1080   -2.4470 hc        1 MOL      0.007339
    163 N14         5.0350   -2.5930   -3.1210 n         1 MOL     -0.103016
    164 C55         6.2080   -2.8280   -4.0390 c3        1 MOL     -0.291921
    165 H73         6.3150   -1.9790   -4.7150 h1        1 MOL      0.115961
    166 H74         7.1160   -2.9360   -3.4470 h1        1 MOL      0.115961
    167 H75         6.0400   -3.7350   -4.6200 h1        1 MOL      0.115961
    168 H76         5.1530   -2.1160   -2.2310 hn        1 MOL      0.125643
    169 Ca1        -0.3040    0.4460    2.6250 Ca        1 MOL      1.798983
    170 O24        -2.1950    1.9450    3.8610 oh        1 MOL     -0.840450
    171 H77        -2.7030    1.7310    4.6410 ho        1 MOL      0.406903
    172 H78        -2.3600    2.8720    3.7130 ho        1 MOL      0.406903
    173 O25        -1.3110    2.1570    0.8620 oh        1 MOL     -0.840450
    174 H79        -0.7960    2.7360    0.3020 ho        1 MOL      0.406903
    175 H80        -2.0740    1.9350    0.3340 ho        1 MOL      0.406903
    176 O26         0.6790   -0.2030    5.0180 oh        1 MOL     -0.840450
    177 H81         1.5230   -0.6100    5.2140 ho        1 MOL      0.406903
    178 H82         0.0890   -0.5440    5.6920 ho        1 MOL      0.406903
    179 O27         0.1930   -2.1560    2.4490 oh        1 MOL     -0.840450
    180 H83         0.6180   -2.1140    1.5870 ho        1 MOL      0.406903
    181 H84         0.0330   -3.0900    2.5840 ho        1 MOL      0.406903
@<TRIPOS>BOND
     1    1    2 1   
     2    1    4 1   
     3    1    5 1   
     4    1    6 1   
     5    2    3 2   
     6    2    7 1   
     7    7    8 1   
     8    7   15 1   
     9    8    9 1   
    10    8   11 1   
    11    8   16 1   
    12    9   10 2   
    13    9   19 1   
    14   11   12 1   
    15   11   17 1   
    16   11   18 1   
    17   12   13 1   
    18   12   14 1   
    19   19   20 1   
    20   19   24 1   
    21   20   21 1   
    22   20   23 1   
    23   20   25 1   
    24   21   22 2   
    25   21   29 1   
    26   23   26 1   
    27   23   27 1   
    28   23   28 1   
    29   29   30 1   
    30   29   37 1   
    31   30   31 1   
    32   30   33 1   
    33   30   38 1   
    34   31   32 2   
    35   31   41 1   
    36   33   34 1   
    37   33   39 1   
    38   33   40 1   
    39   34   35 1   
    40   34   36 1   
    41   41   42 1   
    42   41   45 1   
    43   42   43 1   
    44   42   46 1   
    45   42   47 1   
    46   43   44 2   
    47   43   48 1   
    48   48   49 1   
    49   48   56 1   
    50   49   50 1   
    51   49   52 1   
    52   49   57 1   
    53   50   51 2   
    54   50   62 1   
    55   52   53 1   
    56   52   58 1   
    57   52   59 1   
    58   53   54 1   
    59   53   55 2   
    60   54   60 1   
    61   54   61 1   
    62   62   63 1   
    63   62   66 1   
    64   63   64 1   
    65   63   67 1   
    66   63   68 1   
    67   64   65 2   
    68   64   69 1   
    69   69   70 1   
    70   69   76 1   
    71   70   71 1   
    72   70   73 1   
    73   70   77 1   
    74   71   72 2   
    75   71   83 1   
    76   73   74 1   
    77   73   75 1   
    78   73   78 1   
    79   74   80 1   
    80   74   81 1   
    81   74   82 1   
    82   75   79 1   
    83   83   84 1   
    84   83   91 1   
    85   84   85 1   
    86   84   87 1   
    87   84   92 1   
    88   85   86 2   
    89   85  102 1   
    90   87   88 1   
    91   87   89 1   
    92   87   93 1   
    93   88   90 1   
    94   88   94 1   
    95   88   95 1   
    96   89   96 1   
    97   89   97 1   
    98   89   98 1   
    99   90   99 1   
   100   90  100 1   
   101   90  101 1   
   102  102  103 1   
   103  102  110 1   
   104  103  104 1   
   105  103  106 1   
   106  103  111 1   
   107  104  105 2   
   108  104  114 1   
   109  106  107 1   
   110  106  112 1   
   111  106  113 1   
   112  107  108 1   
   113  107  109 1   
   114  114  115 1   
   115  114  125 1   
   116  115  116 1   
   117  115  118 1   
   118  115  126 1   
   119  116  117 2   
   120  116  134 1   
   121  118  119 1   
   122  118  127 1   
   123  118  128 1   
   124  119  120 ar  
   125  119  121 ar  
   126  120  122 ar  
   127  120  129 1   
   128  121  123 ar  
   129  121  130 1   
   130  122  124 ar  
   131  122  131 1   
   132  123  124 ar  
   133  123  132 1   
   134  124  133 1   
   135  134  135 1   
   136  134  140 1   
   137  135  136 1   
   138  135  138 1   
   139  135  141 1   
   140  136  137 2   
   141  136  148 1   
   142  138  139 1   
   143  138  142 1   
   144  138  143 1   
   145  139  140 1   
   146  139  144 1   
   147  139  145 1   
   148  140  146 1   
   149  140  147 1   
   150  148  149 1   
   151  148  157 1   
   152  149  150 1   
   153  149  152 1   
   154  149  158 1   
   155  150  151 2   
   156  150  163 1   
   157  152  153 1   
   158  152  159 1   
   159  152  160 1   
   160  153  154 1   
   161  153  161 1   
   162  153  162 1   
   163  154  155 1   
   164  154  156 1   
   165  163  164 1   
   166  163  168 1   
   167  164  165 1   
   168  164  166 1   
   169  164  167 1   
   170  170  171 1   
   171  170  172 1   
   172  173  174 1   
   173  173  175 1   
   174  176  177 1   
   175  176  178 1   
   176  179  180 1   
   177  179  181 1   
@<TRIPOS>SUBSTRUCTURE
     1 MOL         1 TEMP              0 ****  ****    0 ROOT
