@<TRIPOS>MOLECULE
MOL
  189   185     1     0     0
SMALL
resp


@<TRIPOS>ATOM
      1 C1          4.1030    4.1820   -3.6740 c3        1 MOL     -0.540627
      2 C2          4.9900    3.4760   -2.5720 c         1 MOL      0.858157
      3 O1          4.4850    3.3760   -1.4200 o         1 MOL     -0.645439
      4 H1          3.4590    3.4430   -4.1490 hc        1 MOL      0.138265
      5 H2          3.4890    4.9530   -3.2070 hc        1 MOL      0.138265
      6 H3          4.7490    4.6360   -4.4250 hc        1 MOL      0.138265
      7 N1          6.2260    3.1040   -2.8320 n         1 MOL     -0.644827
      8 C3          7.0740    2.1070   -2.1020 c3        1 MOL      0.251022
      9 C4          6.3420    0.8500   -1.6810 c         1 MOL      0.582862
     10 O2          5.8730    0.7160   -0.5550 o         1 MOL     -0.666702
     11 C5          7.8890    2.7460   -0.9190 c3        1 MOL     -0.069480
     12 C6          7.1100    3.6850   -0.0020 c         1 MOL      0.611095
     13 O3          6.2880    3.2180    0.8180 o         1 MOL     -0.666856
     14 O4          7.3070    4.9090   -0.0460 o         1 MOL     -0.666856
     15 H4          6.7150    3.3530   -3.6840 hn        1 MOL      0.305123
     16 H5          7.8300    1.7470   -2.7970 h1        1 MOL     -0.007107
     17 H6          8.7760    3.2670   -1.2910 hc        1 MOL     -0.005105
     18 H7          8.2980    1.8830   -0.3950 hc        1 MOL     -0.005105
     19 N2          6.0230    0.0830   -2.6790 n         1 MOL     -0.783414
     20 C7          5.3780   -1.2480   -2.8510 c3        1 MOL      0.252400
     21 C8          5.9950   -2.3880   -1.9910 c         1 MOL      0.343134
     22 O5          5.9490   -3.5260   -2.3440 o         1 MOL     -0.504627
     23 C9          3.8020   -1.0660   -2.6720 c3        1 MOL      0.152233
     24 C10         2.9360   -2.3290   -2.8130 c3        1 MOL     -0.327416
     25 C11         3.2310   -0.0160   -3.5960 c3        1 MOL     -0.293136
     26 C12         3.1080   -3.1480   -4.1210 c3        1 MOL     -0.349365
     27 H8          6.3570    0.5210   -3.5400 hn        1 MOL      0.331246
     28 H9          5.5640   -1.4610   -3.9070 h1        1 MOL      0.070841
     29 H10         3.7340   -0.6810   -1.6550 hc        1 MOL     -0.016475
     30 H11         1.8670   -2.1910   -2.6390 hc        1 MOL      0.169777
     31 H12         3.3120   -3.0400   -2.0610 hc        1 MOL      0.169777
     32 H13         3.5090   -0.2720   -4.6180 hc        1 MOL      0.061255
     33 H14         2.1830    0.1390   -3.3380 hc        1 MOL      0.061255
     34 H15         3.7010    0.9310   -3.3510 hc        1 MOL      0.061255
     35 H16         2.4100   -2.8270   -4.9040 hc        1 MOL      0.088362
     36 H17         4.1460   -3.2200   -4.4420 hc        1 MOL      0.088362
     37 H18         2.6360   -4.1200   -3.9970 hc        1 MOL      0.088362
     38 N3          6.7050   -2.0020   -0.8920 n         1 MOL     -0.134539
     39 C13         7.4800   -2.9710   -0.1630 c3        1 MOL     -0.113686
     40 C14         6.8120   -4.3230    0.2890 c         1 MOL      0.616011
     41 O6          7.5230   -5.3530    0.3820 o         1 MOL     -0.584797
     42 C15         7.9960   -2.1550    0.9980 c3        1 MOL     -0.508438
     43 C16         9.0000   -2.9630    1.8900 c         1 MOL      0.834770
     44 O7         10.2580   -3.0980    1.6200 o         1 MOL     -0.756337
     45 O8          8.6280   -3.2690    3.0260 o         1 MOL     -0.756337
     46 H19         6.5350   -1.0740   -0.5430 hn        1 MOL      0.282238
     47 H20         8.2740   -3.3980   -0.7620 h1        1 MOL      0.082361
     48 H21         7.1750   -1.8820    1.6570 hc        1 MOL      0.133646
     49 H22         8.4820   -1.2010    0.7480 hc        1 MOL      0.133646
     50 N4          5.5590   -4.4640    0.6280 n         1 MOL     -0.399454
     51 C17         4.6500   -3.4090    1.1020 c3        1 MOL     -0.004622
     52 C18         3.2940   -4.0790    1.4840 c         1 MOL      0.572269
     53 O9          3.0040   -5.2600    1.1580 o         1 MOL     -0.597648
     54 H23         5.2170   -5.3920    0.8120 hn        1 MOL      0.250133
     55 H24         4.4200   -2.7140    0.2990 h1        1 MOL      0.081942
     56 H25         5.0390   -3.0040    2.0370 h1        1 MOL      0.081942
     57 N5          2.4620   -3.5430    2.3770 n         1 MOL     -0.495210
     58 C19         2.3490   -2.0960    2.8470 c3        1 MOL      0.384206
     59 C20         2.4350   -1.0240    1.8090 c         1 MOL      0.470913
     60 O10         3.4590   -0.3670    1.6140 o         1 MOL     -0.538816
     61 C21         3.3830   -1.9490    3.9790 c3        1 MOL     -0.374186
     62 C22         2.9920   -0.8450    5.0150 c         1 MOL      0.739538
     63 O11         3.5550   -0.7690    6.1710 o         1 MOL     -0.709320
     64 O12         2.1650    0.0130    4.6690 o         1 MOL     -0.709320
     65 H26         1.7400   -4.1680    2.7330 hn        1 MOL      0.277431
     66 H27         1.3680   -1.9650    3.3080 h1        1 MOL     -0.018357
     67 H28         4.3590   -1.6560    3.5890 hc        1 MOL      0.081146
     68 H29         3.3650   -2.9160    4.4960 hc        1 MOL      0.081146
     69 N6          1.3550   -0.7440    1.0730 n         1 MOL     -0.451833
     70 C23        -0.0700   -1.2980    1.1880 c3        1 MOL     -0.087413
     71 C24        -0.5060   -2.4390    0.2660 c         1 MOL      0.393894
     72 O13         0.2660   -2.8120   -0.6360 o         1 MOL     -0.484890
     73 H30         1.4070    0.0740    0.4790 hn        1 MOL      0.274915
     74 H31        -0.7340   -0.4670    0.9660 h1        1 MOL      0.108685
     75 H32        -0.3660   -1.4710    2.2220 h1        1 MOL      0.108685
     76 N7         -1.6460   -3.0520    0.5940 n         1 MOL     -0.375278
     77 C25        -2.1450   -4.2960    0.0160 c3        1 MOL      0.083824
     78 C26        -2.7270   -4.1700   -1.4210 c         1 MOL      0.321680
     79 O14        -2.8970   -5.1310   -2.1060 o         1 MOL     -0.506679
     80 C27        -3.0540   -5.1280    0.9890 c3        1 MOL     -0.041008
     81 C28        -4.1270   -4.4450    1.8100 c3        1 MOL     -0.101799
     82 C29        -5.2280   -3.8370    0.8830 c         1 MOL      0.423981
     83 N8         -6.0530   -4.6680    0.2660 n         1 MOL     -0.611043
     84 O15        -5.3000   -2.6220    0.7230 o         1 MOL     -0.484160
     85 H33        -2.1360   -2.6600    1.3860 hn        1 MOL      0.250007
     86 H34        -1.2920   -4.9640   -0.1330 h1        1 MOL      0.113052
     87 H35        -2.4360   -5.6370    1.7290 hc        1 MOL      0.029556
     88 H36        -3.4760   -5.8380    0.2790 hc        1 MOL      0.029556
     89 H37        -3.6830   -3.5970    2.3210 hc        1 MOL      0.060653
     90 H38        -4.6240   -5.0970    2.5320 hc        1 MOL      0.060653
     91 H39        -6.0480   -5.6550    0.4410 hn        1 MOL      0.337105
     92 H40        -6.8200   -4.2110   -0.2130 hn        1 MOL      0.337105
     93 N9         -3.1340   -2.9620   -1.7750 n         1 MOL     -0.080877
     94 C30        -3.5640   -2.5560   -3.1610 c3        1 MOL     -0.049051
     95 C31        -4.9590   -1.8880   -3.2270 c         1 MOL      0.307182
     96 O16        -5.4180   -1.6030   -4.3370 o         1 MOL     -0.534774
     97 C32        -2.4750   -1.6150   -3.8010 c3        1 MOL      0.180770
     98 C33        -1.0670   -2.1800   -3.8530 c3        1 MOL     -0.090688
     99 C34        -2.5790   -0.1350   -3.2840 c3        1 MOL     -0.090688
    100 H41        -2.9110   -2.2390   -1.1130 hn        1 MOL      0.188445
    101 H42        -3.6470   -3.4050   -3.8300 h1        1 MOL      0.104319
    102 H43        -2.6800   -1.5940   -4.8650 hc        1 MOL     -0.030310
    103 H44        -0.4300   -1.4850   -4.3920 hc        1 MOL      0.020456
    104 H45        -0.7290   -2.3220   -2.8260 hc        1 MOL      0.020456
    105 H46        -1.1340   -3.1840   -4.2770 hc        1 MOL      0.020456
    106 H47        -2.1920   -0.0610   -2.2620 hc        1 MOL      0.020456
    107 H48        -2.0410    0.5230   -3.9710 hc        1 MOL      0.020456
    108 H49        -3.6240    0.1790   -3.2340 hc        1 MOL      0.020456
    109 N10        -5.6650   -1.6900   -2.1220 n         1 MOL     -0.031265
    110 C35        -6.8990   -0.8950   -2.0740 c3        1 MOL      0.098412
    111 C36        -6.8150    0.4330   -1.3530 c         1 MOL      0.541677
    112 O17        -7.7370    1.2860   -1.5170 o         1 MOL     -0.561229
    113 C37        -8.0150   -1.6730   -1.3810 c3        1 MOL     -0.220719
    114 C38        -8.3570   -2.9630   -2.0200 c         1 MOL      0.615262
    115 N11        -8.5760   -3.0210   -3.2750 n         1 MOL     -0.718171
    116 O18        -8.3040   -3.9860   -1.3440 o         1 MOL     -0.600162
    117 H50        -5.2550   -2.0340   -1.2610 hn        1 MOL      0.000390
    118 H51        -7.2010   -0.6510   -3.0940 h1        1 MOL      0.039251
    119 H52        -8.8930   -1.0320   -1.4310 hc        1 MOL      0.079893
    120 H53        -7.6660   -1.8730   -0.3690 hc        1 MOL      0.079893
    121 H54        -8.5510   -2.2370   -3.9060 hn        1 MOL      0.359644
    122 H55        -8.7050   -3.9620   -3.6080 hn        1 MOL      0.359644
    123 N12        -5.7020    0.7190   -0.5910 n         1 MOL     -0.504005
    124 C39        -5.6870    1.8110    0.4110 c3        1 MOL      0.230906
    125 C40        -4.3470    2.5530    0.4790 c         1 MOL      0.447199
    126 O19        -3.3370    1.9060    0.2440 o         1 MOL     -0.475428
    127 C41        -5.9980    1.2990    1.8620 c3        1 MOL     -0.050474
    128 C42        -7.3350    0.5800    2.1210 ca        1 MOL     -0.029280
    129 C43        -7.4330   -0.7940    2.4560 ca        1 MOL     -0.113374
    130 C44        -8.5000    1.3370    2.0550 ca        1 MOL     -0.113374
    131 C45        -8.6600   -1.4330    2.5150 ca        1 MOL     -0.195154
    132 C46        -9.7380    0.7580    2.2340 ca        1 MOL     -0.195154
    133 C47        -9.8060   -0.6310    2.4330 ca        1 MOL      0.255406
    134 O20       -11.0370   -1.2000    2.6680 oh        1 MOL     -0.502384
    135 H56        -5.0540   -0.0350   -0.4630 hn        1 MOL      0.261344
    136 H57        -6.4650    2.5250    0.1420 h1        1 MOL      0.011836
    137 H58        -5.9880    2.2200    2.4560 hc        1 MOL      0.073043
    138 H59        -5.2490    0.5810    2.2050 hc        1 MOL      0.073043
    139 H60        -6.5570   -1.4270    2.4620 ha        1 MOL      0.113732
    140 H61        -8.3280    2.3970    2.0120 ha        1 MOL      0.113732
    141 H62        -8.7960   -2.4730    2.7970 ha        1 MOL      0.124699
    142 H63       -10.6220    1.3860    2.2550 ha        1 MOL      0.124699
    143 H64       -10.9190   -2.1380    2.4740 ho        1 MOL      0.354444
    144 N13        -4.3310    3.8310    0.8940 n         1 MOL     -0.599937
    145 C48        -3.2080    4.6120    1.3930 c3        1 MOL      0.106176
    146 C49        -2.0290    4.9390    0.3950 c         1 MOL      0.438061
    147 O21        -1.2710    5.8710    0.6600 o         1 MOL     -0.512050
    148 C50        -2.6860    3.9490    2.6970 c3        1 MOL      0.037545
    149 C51        -3.6990    3.6920    3.7860 c3        1 MOL     -0.277897
    150 C52        -3.0510    3.5670    5.1750 c         1 MOL      0.740200
    151 O22        -3.0400    2.3950    5.6540 o         1 MOL     -0.731381
    152 O23        -2.6840    4.5630    5.8100 o         1 MOL     -0.731381
    153 H65        -5.2050    4.3190    1.0260 hn        1 MOL      0.330637
    154 H66        -3.5700    5.5930    1.6970 h1        1 MOL      0.044989
    155 H67        -1.9310    4.6250    3.0860 hc        1 MOL      0.051954
    156 H68        -2.0850    3.0790    2.4380 hc        1 MOL      0.051954
    157 H69        -4.2680    2.7800    3.5560 hc        1 MOL      0.025443
    158 H70        -4.3390    4.5470    3.9490 hc        1 MOL      0.025443
    159 N14        -1.8690    4.1750   -0.7110 n         1 MOL     -0.373058
    160 C53        -0.8920    4.4630   -1.7520 c3        1 MOL     -0.207619
    161 C54        -1.2710    5.4580   -2.8410 c         1 MOL      0.537735
    162 O24        -0.4690    5.8490   -3.6960 o         1 MOL     -0.537552
    163 C55        -0.3820    3.0870   -2.3190 c3        1 MOL     -0.000814
    164 C56        -0.0280    2.0290   -1.2270 c3        1 MOL      0.481679
    165 C57         1.3270    2.2760   -0.5970 c         1 MOL      0.355532
    166 O25         1.5220    3.2750    0.1020 o         1 MOL     -0.566700
    167 O26         2.1910    1.4100   -0.7730 o         1 MOL     -0.566700
    168 H71        -2.4910    3.3850   -0.7760 hn        1 MOL      0.238558
    169 H72        -0.0370    4.9560   -1.2870 h1        1 MOL      0.169300
    170 H73         0.3510    3.2300   -3.1060 hc        1 MOL     -0.001079
    171 H74        -1.1950    2.5970   -2.8540 hc        1 MOL     -0.001079
    172 H75         0.0730    1.0790   -1.7490 hc        1 MOL     -0.114325
    173 H76        -0.8080    1.8820   -0.4840 hc        1 MOL     -0.114325
    174 N15        -2.5270    5.9760   -2.8350 n         1 MOL     -0.282811
    175 C58        -3.1110    6.7640   -3.8870 c3        1 MOL     -0.141545
    176 H77        -4.0290    6.2880   -4.2300 h1        1 MOL      0.071843
    177 H78        -3.3380    7.7620   -3.5110 h1        1 MOL      0.071843
    178 H79        -2.4090    6.8390   -4.7180 h1        1 MOL      0.071843
    179 H80        -3.0250    5.8660   -1.9670 hn        1 MOL      0.232027
    180 Ca1         3.9220    2.1120    0.8430 Ca        1 MOL      1.785460
    181 O27         5.7390    1.1730    2.5640 oh        1 MOL     -0.912695
    182 H81         6.2460    0.5300    3.0680 ho        1 MOL      0.432464
    183 H82         6.4000    1.7740    2.2170 ho        1 MOL      0.432464
    184 O28         3.6350    4.5360    1.9620 oh        1 MOL     -0.912695
    185 H83         2.8180    5.0130    2.0480 ho        1 MOL      0.432464
    186 H84         4.3210    5.1980    2.0740 ho        1 MOL      0.432464
    187 O29         2.1560    2.0770    2.8930 oh        1 MOL     -0.912695
    188 H85         1.7440    2.7940    3.3570 ho        1 MOL      0.432464
    189 H86         2.2450    1.3750    3.5420 ho        1 MOL      0.432464
@<TRIPOS>BOND
     1    1    2 1   
     2    1    4 1   
     3    1    5 1   
     4    1    6 1   
     5    2    3 2   
     6    2    7 1   
     7    7    8 1   
     8    7   15 1   
     9    8    9 1   
    10    8   11 1   
    11    8   16 1   
    12    9   10 2   
    13    9   19 1   
    14   11   12 1   
    15   11   17 1   
    16   11   18 1   
    17   12   13 1   
    18   12   14 1   
    19   19   20 1   
    20   19   27 1   
    21   20   21 1   
    22   20   23 1   
    23   20   28 1   
    24   21   22 2   
    25   21   38 1   
    26   23   24 1   
    27   23   25 1   
    28   23   29 1   
    29   24   26 1   
    30   24   30 1   
    31   24   31 1   
    32   25   32 1   
    33   25   33 1   
    34   25   34 1   
    35   26   35 1   
    36   26   36 1   
    37   26   37 1   
    38   38   39 1   
    39   38   46 1   
    40   39   40 1   
    41   39   42 1   
    42   39   47 1   
    43   40   41 2   
    44   40   50 1   
    45   42   43 1   
    46   42   48 1   
    47   42   49 1   
    48   43   44 1   
    49   43   45 1   
    50   50   51 1   
    51   50   54 1   
    52   51   52 1   
    53   51   55 1   
    54   51   56 1   
    55   52   53 2   
    56   52   57 1   
    57   57   58 1   
    58   57   65 1   
    59   58   59 1   
    60   58   61 1   
    61   58   66 1   
    62   59   60 2   
    63   59   69 1   
    64   61   62 1   
    65   61   67 1   
    66   61   68 1   
    67   62   63 1   
    68   62   64 1   
    69   69   70 1   
    70   69   73 1   
    71   70   71 1   
    72   70   74 1   
    73   70   75 1   
    74   71   72 2   
    75   71   76 1   
    76   76   77 1   
    77   76   85 1   
    78   77   78 1   
    79   77   80 1   
    80   77   86 1   
    81   78   79 2   
    82   78   93 1   
    83   80   81 1   
    84   80   87 1   
    85   80   88 1   
    86   81   82 1   
    87   81   89 1   
    88   81   90 1   
    89   82   83 1   
    90   82   84 2   
    91   83   91 1   
    92   83   92 1   
    93   93   94 1   
    94   93  100 1   
    95   94   95 1   
    96   94   97 1   
    97   94  101 1   
    98   95   96 2   
    99   95  109 1   
   100   97   98 1   
   101   97   99 1   
   102   97  102 1   
   103   98  103 1   
   104   98  104 1   
   105   98  105 1   
   106   99  106 1   
   107   99  107 1   
   108   99  108 1   
   109  109  110 1   
   110  109  117 1   
   111  110  111 1   
   112  110  113 1   
   113  110  118 1   
   114  111  112 2   
   115  111  123 1   
   116  113  114 1   
   117  113  119 1   
   118  113  120 1   
   119  114  115 1   
   120  114  116 2   
   121  115  121 1   
   122  115  122 1   
   123  123  124 1   
   124  123  135 1   
   125  124  125 1   
   126  124  127 1   
   127  124  136 1   
   128  125  126 2   
   129  125  144 1   
   130  127  128 1   
   131  127  137 1   
   132  127  138 1   
   133  128  129 ar  
   134  128  130 ar  
   135  129  131 ar  
   136  129  139 1   
   137  130  132 ar  
   138  130  140 1   
   139  131  133 ar  
   140  131  141 1   
   141  132  133 ar  
   142  132  142 1   
   143  133  134 1   
   144  134  143 1   
   145  144  145 1   
   146  144  153 1   
   147  145  146 1   
   148  145  148 1   
   149  145  154 1   
   150  146  147 2   
   151  146  159 1   
   152  148  149 1   
   153  148  155 1   
   154  148  156 1   
   155  149  150 1   
   156  149  157 1   
   157  149  158 1   
   158  150  151 1   
   159  150  152 1   
   160  159  160 1   
   161  159  168 1   
   162  160  161 1   
   163  160  163 1   
   164  160  169 1   
   165  161  162 2   
   166  161  174 1   
   167  163  164 1   
   168  163  170 1   
   169  163  171 1   
   170  164  165 1   
   171  164  172 1   
   172  164  173 1   
   173  165  166 1   
   174  165  167 1   
   175  174  175 1   
   176  174  179 1   
   177  175  176 1   
   178  175  177 1   
   179  175  178 1   
   180  181  182 1   
   181  181  183 1   
   182  184  185 1   
   183  184  186 1   
   184  187  188 1   
   185  187  189 1   
@<TRIPOS>SUBSTRUCTURE
     1 MOL         1 TEMP              0 ****  ****    0 ROOT
