@<TRIPOS>MOLECULE
MOL
  195   189     1     0     0
SMALL
resp


@<TRIPOS>ATOM
      1 C1          5.3840    2.3590    5.6990 c3        1 MOL     -0.187671
      2 C2          5.1370    2.0520    4.1870 c         1 MOL      0.616012
      3 O1          4.8390    2.9830    3.4580 o         1 MOL     -0.550940
      4 H1          4.4370    2.6090    6.1780 hc        1 MOL      0.044902
      5 H2          5.8140    1.4820    6.1820 hc        1 MOL      0.044902
      6 H3          6.0710    3.1990    5.7930 hc        1 MOL      0.044902
      7 N1          5.1590    0.8530    3.6980 n         1 MOL     -0.473279
      8 C3          4.7840    0.5440    2.3100 c3        1 MOL      0.074738
      9 C4          3.2810    0.4130    2.0100 c         1 MOL      0.341109
     10 O2          2.9640    0.4380    0.7960 o         1 MOL     -0.379912
     11 C5          5.5490   -0.7200    1.8930 c3        1 MOL     -0.279567
     12 C6          5.4500   -1.9200    2.8260 c         1 MOL      0.762303
     13 O3          5.5620   -3.0630    2.3410 o         1 MOL     -0.715871
     14 O4          5.6820   -1.7530    4.0330 o         1 MOL     -0.715871
     15 H4          5.4380    0.0730    4.2730 hn        1 MOL      0.292018
     16 H5          5.1100    1.4020    1.7040 h1        1 MOL      0.107442
     17 H6          6.5670   -0.3190    1.9110 hc        1 MOL      0.101418
     18 H7          5.2370   -0.9640    0.8790 hc        1 MOL      0.101418
     19 N2          2.3130    0.3820    2.9830 n         1 MOL     -0.383926
     20 C7          0.9240    0.2260    2.6710 c3        1 MOL     -0.091701
     21 C8          0.1530    1.5350    2.5080 c         1 MOL      0.765018
     22 O5          0.3360    2.4310    3.3270 o         1 MOL     -0.582374
     23 C9          0.3400   -0.6140    3.8440 c3        1 MOL     -0.095332
     24 C10         0.8810   -2.0650    3.9500 c3        1 MOL     -0.049998
     25 C11         2.1420   -2.2840    4.8520 c3        1 MOL     -0.023864
     26 C12         2.5370   -3.7740    4.8270 c3        1 MOL      0.086716
     27 N3          3.9720   -3.9140    4.9460 n4        1 MOL     -0.536230
     28 H8          2.5790    0.4930    3.9550 hn        1 MOL      0.282099
     29 H9          0.8450   -0.2650    1.7030 h1        1 MOL      0.217631
     30 H10        -0.7020   -0.6090    3.5230 hc        1 MOL      0.057429
     31 H11         0.4990   -0.1530    4.8230 hc        1 MOL      0.057429
     32 H12         0.9140   -2.5510    2.9770 hc        1 MOL      0.042017
     33 H13         0.1670   -2.5950    4.5930 hc        1 MOL      0.042017
     34 H14         1.7290   -2.0340    5.8380 hc        1 MOL      0.025296
     35 H15         2.9670   -1.6070    4.6280 hc        1 MOL      0.025296
     36 H16         2.0740   -4.1740    3.9180 hx        1 MOL      0.059580
     37 H17         1.9930   -4.3900    5.5470 hx        1 MOL      0.059580
     38 H18         4.3900   -3.3140    4.2490 hn        1 MOL      0.358615
     39 H19         4.2340   -3.7290    5.9040 hn        1 MOL      0.358615
     40 H20         4.2550   -4.8790    4.8130 hn        1 MOL      0.358615
     41 N4         -0.8920    1.6910    1.6340 n         1 MOL     -0.696022
     42 C13        -1.4100    0.6870    0.6700 c3        1 MOL      0.030140
     43 C14        -1.8010   -0.7250    1.1800 c         1 MOL      0.265594
     44 O6         -1.1590   -1.6860    0.8600 o         1 MOL     -0.451189
     45 C15        -0.5730    0.8180   -0.6080 c3        1 MOL     -0.385134
     46 C16        -0.5390    2.2190   -1.2180 c         1 MOL      1.069157
     47 O7         -1.4880    2.9750   -0.9760 o         1 MOL     -0.828121
     48 O8          0.4540    2.6440   -1.8850 o         1 MOL     -0.828121
     49 H21        -1.3270    2.5970    1.6260 hn        1 MOL      0.375230
     50 H22        -2.3500    1.1550    0.3630 h1        1 MOL      0.087237
     51 H23        -0.9080    0.0950   -1.3480 hc        1 MOL      0.054912
     52 H24         0.4370    0.5810   -0.2850 hc        1 MOL      0.054912
     53 N5         -2.8710   -0.9200    1.9560 n         1 MOL     -0.079570
     54 C17        -3.9850   -0.0080    2.1280 c3        1 MOL     -0.165455
     55 C18        -4.9950   -0.4020    3.2480 c         1 MOL      0.416167
     56 O9         -4.8740   -1.4730    3.8350 o         1 MOL     -0.521642
     57 H25        -2.8740   -1.7870    2.4760 hn        1 MOL      0.210549
     58 H26        -4.6480   -0.0210    1.2550 h1        1 MOL      0.101877
     59 H27        -3.6460    1.0100    2.2960 h1        1 MOL      0.101877
     60 N6         -6.0360    0.3750    3.5200 n         1 MOL     -0.304918
     61 C19        -6.4120    1.6270    2.7920 c3        1 MOL      0.026306
     62 C20        -7.0440    1.3710    1.4190 c         1 MOL      0.451045
     63 O10        -7.2990    0.2440    0.9810 o         1 MOL     -0.489856
     64 C21        -7.3080    2.4610    3.6730 c3        1 MOL     -0.264112
     65 C22        -8.4930    1.6700    4.2970 c         1 MOL      0.730320
     66 O11        -8.3810    1.2610    5.4700 o         1 MOL     -0.655918
     67 O12        -9.5660    1.4130    3.6690 o         1 MOL     -0.655918
     68 H28        -6.5990    0.1180    4.3170 hn        1 MOL      0.286391
     69 H29        -5.5350    2.2350    2.5580 h1        1 MOL      0.032729
     70 H30        -7.7900    3.3090    3.2120 hc        1 MOL      0.050361
     71 H31        -6.6750    2.7930    4.5060 hc        1 MOL      0.050361
     72 N7         -7.1440    2.3860    0.6230 n         1 MOL     -0.248086
     73 C23        -7.8470    2.3640   -0.6860 c3        1 MOL     -0.323666
     74 C24        -7.1700    1.6890   -1.8650 c         1 MOL      0.572482
     75 O13        -7.7820    1.6620   -2.9020 o         1 MOL     -0.546027
     76 H32        -6.8550    3.2880    0.9700 hn        1 MOL      0.241344
     77 H33        -8.0420    3.3450   -1.0990 h1        1 MOL      0.168390
     78 H34        -8.7870    1.8290   -0.5210 h1        1 MOL      0.168390
     79 N8         -6.0090    1.0720   -1.6750 n         1 MOL     -0.162550
     80 C25        -5.5160    0.0080   -2.5950 c3        1 MOL     -0.215915
     81 C26        -4.5920   -0.9750   -1.8720 c         1 MOL      0.440518
     82 O14        -3.5320   -0.6050   -1.4320 o         1 MOL     -0.200142
     83 C27        -4.7890    0.6390   -3.7870 c3        1 MOL      0.082735
     84 C28        -3.5380    1.5100   -3.3510 c3        1 MOL     -0.061686
     85 O15        -5.7280    1.4030   -4.5710 oh        1 MOL     -0.608816
     86 H35        -5.4130    1.3750   -0.9150 hn        1 MOL      0.122071
     87 H36        -6.3500   -0.5890   -2.9550 h1        1 MOL      0.136117
     88 H37        -4.3310   -0.1960   -4.3220 h1        1 MOL      0.091949
     89 H38        -6.5580    1.4460   -4.0890 ho        1 MOL      0.407201
     90 H39        -2.7540    0.9770   -2.8030 hc        1 MOL      0.037059
     91 H40        -3.0470    1.8310   -4.2680 hc        1 MOL      0.037059
     92 H41        -3.8490    2.4600   -2.9210 hc        1 MOL      0.037059
     93 N9         -5.0490   -2.1740   -1.6620 n         1 MOL     -0.469007
     94 C29        -4.3510   -3.2010   -0.8320 c3        1 MOL     -0.100579
     95 C30        -3.0920   -3.8190   -1.4450 c         1 MOL      0.399732
     96 O16        -2.6360   -4.8460   -0.9490 o         1 MOL     -0.539874
     97 C31        -5.3450   -4.0750   -0.1190 c3        1 MOL      0.091294
     98 C32        -6.0250   -5.1670   -0.9970 c3        1 MOL      0.162101
     99 C33        -6.3030   -3.1050    0.6030 c3        1 MOL     -0.089848
    100 C34        -6.9130   -6.1300   -0.2160 c3        1 MOL     -0.428598
    101 H42        -5.9520   -2.3500   -2.0780 hn        1 MOL      0.316668
    102 H43        -3.9360   -2.7010    0.0480 h1        1 MOL      0.134499
    103 H44        -4.7780   -4.6010    0.6580 hc        1 MOL      0.033977
    104 H45        -5.3430   -5.7210   -1.6360 hc        1 MOL     -0.013072
    105 H46        -6.5440   -4.6390   -1.7890 hc        1 MOL     -0.013072
    106 H47        -7.0590   -2.7390   -0.1060 hc        1 MOL      0.030897
    107 H48        -6.7910   -3.5450    1.4710 hc        1 MOL      0.030897
    108 H49        -5.7660   -2.2160    0.9360 hc        1 MOL      0.030897
    109 H50        -7.8500   -5.6370    0.0520 hc        1 MOL      0.108564
    110 H51        -7.0560   -6.9730   -0.8890 hc        1 MOL      0.108564
    111 H52        -6.4970   -6.3760    0.7640 hc        1 MOL      0.108564
    112 N10        -2.4910   -3.1810   -2.4480 n         1 MOL     -0.084207
    113 C35        -1.3380   -3.6490   -3.2440 c3        1 MOL     -0.254214
    114 C36         0.0610   -3.6260   -2.5210 c         1 MOL      0.487161
    115 O17         1.0530   -4.2370   -2.9470 o         1 MOL     -0.577563
    116 C37        -1.2530   -2.8600   -4.5640 c3        1 MOL      0.157112
    117 C38        -1.2840   -1.3530   -4.4610 c3        1 MOL      0.073938
    118 O18        -2.3580   -3.1490   -5.4550 oh        1 MOL     -0.616410
    119 H53        -2.9430   -2.3160   -2.7020 hn        1 MOL      0.123221
    120 H54        -1.5350   -4.7030   -3.4310 h1        1 MOL      0.153901
    121 H55        -0.3510   -3.1590   -5.0990 h1        1 MOL      0.076021
    122 H56        -2.1390   -4.0100   -5.8010 ho        1 MOL      0.392040
    123 H57        -2.1430   -1.0370   -3.8710 hc        1 MOL      0.001271
    124 H58        -0.3800   -0.9710   -3.9910 hc        1 MOL      0.001271
    125 H59        -1.3640   -0.8050   -5.4000 hc        1 MOL      0.001271
    126 N11         0.1550   -2.9280   -1.3480 n         1 MOL     -0.062743
    127 C39         1.5280   -2.6020   -0.7570 c3        1 MOL     -0.004720
    128 C40         2.4500   -1.8320   -1.7500 c         1 MOL      0.457618
    129 O19         2.0440   -1.4820   -2.8900 o         1 MOL     -0.492969
    130 C41         2.2180   -3.9090   -0.1890 c3        1 MOL      0.484251
    131 C42         1.2410   -4.8970    0.4660 c3        1 MOL     -0.330615
    132 O20         2.9840   -3.4300    0.8990 oh        1 MOL     -0.695335
    133 H60        -0.6560   -2.4010   -1.0790 hn        1 MOL      0.028861
    134 H61         1.2610   -2.0400    0.1380 h1        1 MOL      0.070089
    135 H62         2.8760   -4.4390   -0.8820 h1        1 MOL     -0.084419
    136 H63         3.4520   -4.1150    1.3770 ho        1 MOL      0.366825
    137 H64         0.5510   -4.3440    1.0930 hc        1 MOL      0.074829
    138 H65         0.6760   -5.4130   -0.3080 hc        1 MOL      0.074829
    139 H66         1.8080   -5.6410    1.0300 hc        1 MOL      0.074829
    140 N12         3.6840   -1.5830   -1.3250 n         1 MOL     -0.277793
    141 C43         4.8220   -1.3180   -2.2280 c3        1 MOL     -0.082828
    142 C44         5.1840    0.1330   -2.4200 c         1 MOL      0.472860
    143 O21         5.8510    0.4170   -3.3950 o         1 MOL     -0.592049
    144 C45         6.1080   -2.1080   -1.9400 c3        1 MOL      0.000124
    145 C46         5.9490   -3.6480   -1.9090 c3        1 MOL      0.011287
    146 C47         7.2680   -4.3710   -2.2380 c3        1 MOL     -0.043889
    147 C48         7.1620   -5.8890   -2.2440 c3        1 MOL     -0.094424
    148 N13         6.7940   -6.3320   -0.9290 n4        1 MOL     -0.260759
    149 H67         3.9450   -1.9220   -0.4130 hn        1 MOL      0.233860
    150 H68         4.5210   -1.6130   -3.2260 h1        1 MOL      0.109655
    151 H69         6.6080   -1.7420   -1.0420 hc        1 MOL      0.023416
    152 H70         6.8510   -1.8740   -2.7050 hc        1 MOL      0.023416
    153 H71         5.2280   -3.8650   -2.6900 hc        1 MOL      0.030646
    154 H72         5.6380   -3.9440   -0.9070 hc        1 MOL      0.030646
    155 H73         8.0990   -4.0780   -1.5940 hc        1 MOL      0.056518
    156 H74         7.6260   -3.9660   -3.1890 hc        1 MOL      0.056518
    157 H75         8.1360   -6.2780   -2.5460 hx        1 MOL      0.115979
    158 H76         6.5330   -6.2770   -3.0410 hx        1 MOL      0.115979
    159 H77         5.8870   -6.0080   -0.6120 hn        1 MOL      0.272609
    160 H78         6.7910   -7.3390   -0.9860 hn        1 MOL      0.272609
    161 H79         7.4630   -6.1560   -0.2040 hn        1 MOL      0.272609
    162 N14         4.7940    1.0530   -1.5590 n         1 MOL     -0.056641
    163 C49         5.2490    2.4480   -1.6280 c3        1 MOL     -0.125390
    164 C50         6.6280    2.6100   -0.8910 c         1 MOL      0.374593
    165 O22         6.7510    2.1320    0.2750 o         1 MOL     -0.475453
    166 C51         4.2050    3.4370   -1.0640 c3        1 MOL     -0.203765
    167 C52         4.6330    4.8890   -1.3660 c3        1 MOL      0.150563
    168 C53         3.4190    5.8770   -1.1310 c         1 MOL      0.584302
    169 O23         3.4690    6.7890   -0.2460 o         1 MOL     -0.680857
    170 O24         2.4000    5.7180   -1.8790 o         1 MOL     -0.680857
    171 H80         4.0920    0.7670   -0.8980 hn        1 MOL      0.107409
    172 H81         5.3440    2.7770   -2.6650 h1        1 MOL      0.104263
    173 H82         4.1070    3.1960   -0.0100 hc        1 MOL      0.100588
    174 H83         3.2420    3.2610   -1.5350 hc        1 MOL      0.100588
    175 H84         4.8830    4.8880   -2.4250 hc        1 MOL     -0.047533
    176 H85         5.4990    5.2640   -0.8280 hc        1 MOL     -0.047533
    177 N15         7.6390    3.2970   -1.4020 n         1 MOL     -0.254465
    178 C54         8.9940    3.0120   -0.9910 c3        1 MOL      0.053587
    179 H86         9.6170    2.8650   -1.8730 h1        1 MOL      0.031837
    180 H87         9.3820    3.8480   -0.4090 h1        1 MOL      0.031837
    181 H88         9.0080    2.1090   -0.3820 h1        1 MOL      0.031837
    182 H89         7.4680    3.7050   -2.3020 hn        1 MOL      0.243441
    183 Ca1        -0.2500    5.3540   -1.4390 Ca        1 MOL      1.761213
    184 O25        -1.2930    4.1690   -3.6920 oh        1 MOL     -0.891782
    185 H90        -1.6280    4.5240   -4.5070 ho        1 MOL      0.426571
    186 H91        -0.7560    3.4210   -3.9570 ho        1 MOL      0.426571
    187 O26         0.6510    7.3470   -0.0100 oh        1 MOL     -0.891782
    188 H92         0.5330    8.2310   -0.3700 ho        1 MOL      0.426571
    189 H93         1.6000    7.2380    0.0450 ho        1 MOL      0.426571
    190 O27         0.3700    4.4790    0.9730 oh        1 MOL     -0.891782
    191 H94         1.2950    4.4940    1.2320 ho        1 MOL      0.426571
    192 H95        -0.1130    4.5450    1.7950 ho        1 MOL      0.426571
    193 O28         0.5620    6.3870   -3.8440 oh        1 MOL     -0.891782
    194 H96         1.4270    5.9700   -3.7460 ho        1 MOL      0.426571
    195 H97         0.6870    7.0070   -4.5670 ho        1 MOL      0.426571
@<TRIPOS>BOND
     1    1    2 1   
     2    1    4 1   
     3    1    5 1   
     4    1    6 1   
     5    2    3 2   
     6    2    7 1   
     7    7    8 1   
     8    7   15 1   
     9    8    9 1   
    10    8   11 1   
    11    8   16 1   
    12    9   10 2   
    13    9   19 1   
    14   11   12 1   
    15   11   17 1   
    16   11   18 1   
    17   12   13 1   
    18   12   14 1   
    19   19   20 1   
    20   19   28 1   
    21   20   21 1   
    22   20   23 1   
    23   20   29 1   
    24   21   22 2   
    25   21   41 1   
    26   23   24 1   
    27   23   30 1   
    28   23   31 1   
    29   24   25 1   
    30   24   32 1   
    31   24   33 1   
    32   25   26 1   
    33   25   34 1   
    34   25   35 1   
    35   26   27 1   
    36   26   36 1   
    37   26   37 1   
    38   27   38 1   
    39   27   39 1   
    40   27   40 1   
    41   41   42 1   
    42   41   49 1   
    43   42   43 1   
    44   42   45 1   
    45   42   50 1   
    46   43   44 2   
    47   43   53 1   
    48   45   46 1   
    49   45   51 1   
    50   45   52 1   
    51   46   47 1   
    52   46   48 1   
    53   53   54 1   
    54   53   57 1   
    55   54   55 1   
    56   54   58 1   
    57   54   59 1   
    58   55   56 2   
    59   55   60 1   
    60   60   61 1   
    61   60   68 1   
    62   61   62 1   
    63   61   64 1   
    64   61   69 1   
    65   62   63 2   
    66   62   72 1   
    67   64   65 1   
    68   64   70 1   
    69   64   71 1   
    70   65   66 1   
    71   65   67 1   
    72   72   73 1   
    73   72   76 1   
    74   73   74 1   
    75   73   77 1   
    76   73   78 1   
    77   74   75 2   
    78   74   79 1   
    79   79   80 1   
    80   79   86 1   
    81   80   81 1   
    82   80   83 1   
    83   80   87 1   
    84   81   82 2   
    85   81   93 1   
    86   83   84 1   
    87   83   85 1   
    88   83   88 1   
    89   84   90 1   
    90   84   91 1   
    91   84   92 1   
    92   85   89 1   
    93   93   94 1   
    94   93  101 1   
    95   94   95 1   
    96   94   97 1   
    97   94  102 1   
    98   95   96 2   
    99   95  112 1   
   100   97   98 1   
   101   97   99 1   
   102   97  103 1   
   103   98  100 1   
   104   98  104 1   
   105   98  105 1   
   106   99  106 1   
   107   99  107 1   
   108   99  108 1   
   109  100  109 1   
   110  100  110 1   
   111  100  111 1   
   112  112  113 1   
   113  112  119 1   
   114  113  114 1   
   115  113  116 1   
   116  113  120 1   
   117  114  115 2   
   118  114  126 1   
   119  116  117 1   
   120  116  118 1   
   121  116  121 1   
   122  117  123 1   
   123  117  124 1   
   124  117  125 1   
   125  118  122 1   
   126  126  127 1   
   127  126  133 1   
   128  127  128 1   
   129  127  130 1   
   130  127  134 1   
   131  128  129 2   
   132  128  140 1   
   133  130  131 1   
   134  130  132 1   
   135  130  135 1   
   136  131  137 1   
   137  131  138 1   
   138  131  139 1   
   139  132  136 1   
   140  140  141 1   
   141  140  149 1   
   142  141  142 1   
   143  141  144 1   
   144  141  150 1   
   145  142  143 2   
   146  142  162 1   
   147  144  145 1   
   148  144  151 1   
   149  144  152 1   
   150  145  146 1   
   151  145  153 1   
   152  145  154 1   
   153  146  147 1   
   154  146  155 1   
   155  146  156 1   
   156  147  148 1   
   157  147  157 1   
   158  147  158 1   
   159  148  159 1   
   160  148  160 1   
   161  148  161 1   
   162  162  163 1   
   163  162  171 1   
   164  163  164 1   
   165  163  166 1   
   166  163  172 1   
   167  164  165 2   
   168  164  177 1   
   169  166  167 1   
   170  166  173 1   
   171  166  174 1   
   172  167  168 1   
   173  167  175 1   
   174  167  176 1   
   175  168  169 1   
   176  168  170 1   
   177  177  178 1   
   178  177  182 1   
   179  178  179 1   
   180  178  180 1   
   181  178  181 1   
   182  184  185 1   
   183  184  186 1   
   184  187  188 1   
   185  187  189 1   
   186  190  191 1   
   187  190  192 1   
   188  193  194 1   
   189  193  195 1   
@<TRIPOS>SUBSTRUCTURE
     1 MOL         1 TEMP              0 ****  ****    0 ROOT
