@<TRIPOS>MOLECULE
MOL
  192   187     1     0     0
SMALL
resp


@<TRIPOS>ATOM
      1 C1          8.7490    1.4340    1.9330 c3        1 MOL     -0.609687
      2 C2          7.9700    1.1510    0.6320 c         1 MOL      0.674345
      3 O1          7.0500    1.8730    0.1800 o         1 MOL     -0.600836
      4 H1          9.1810    0.5060    2.3070 hc        1 MOL      0.158447
      5 H2          9.5460    2.1500    1.7320 hc        1 MOL      0.158447
      6 H3          8.0710    1.8450    2.6810 hc        1 MOL      0.158447
      7 N1          8.3170    0.0770   -0.0950 n         1 MOL     -0.333200
      8 C3          7.7770   -0.3890   -1.3860 c3        1 MOL     -0.023682
      9 C4          7.0680   -1.6460   -1.1870 c         1 MOL      0.285814
     10 O2          6.7510   -2.3600   -2.1020 o         1 MOL     -0.422951
     11 C5          8.7810   -0.4970   -2.5450 c3        1 MOL     -0.340614
     12 C6         10.0100   -1.3780   -2.2760 c         1 MOL      0.799740
     13 O3         10.8720   -1.3500   -3.1220 o         1 MOL     -0.682080
     14 O4         10.1610   -2.0350   -1.2290 o         1 MOL     -0.682080
     15 H4          9.0710   -0.4590    0.3020 hn        1 MOL      0.189612
     16 H5          7.0990    0.3610   -1.7900 h1        1 MOL      0.166682
     17 H6          9.2580    0.4750   -2.6650 hc        1 MOL      0.120195
     18 H7          8.3880   -0.8240   -3.5060 hc        1 MOL      0.120195
     19 N2          6.6990   -2.0650    0.0790 n         1 MOL     -0.111419
     20 C7          6.2460   -3.4850    0.4090 c3        1 MOL      0.145885
     21 C8          4.8240   -3.8850   -0.1560 c         1 MOL      0.429825
     22 O5          4.6300   -4.8960   -0.8190 o         1 MOL     -0.504967
     23 C9          6.4860   -3.7440    1.9330 c3        1 MOL      0.045823
     24 C10         8.0250   -4.1190    2.0640 c3        1 MOL     -0.187140
     25 C11         8.3570   -4.2000    3.5690 c3        1 MOL      0.110344
     26 C12         9.7700   -3.9500    3.9330 c3        1 MOL      0.004470
     27 N3          9.8910   -4.0630    5.3850 n4        1 MOL     -0.155880
     28 H8          6.7930   -1.3420    0.7830 hn        1 MOL      0.138174
     29 H9          6.9470   -4.1560   -0.0770 h1        1 MOL      0.038849
     30 H10         5.8260   -4.5460    2.2500 hc        1 MOL     -0.010653
     31 H11         6.3050   -2.7960    2.4410 hc        1 MOL     -0.010653
     32 H12         8.5780   -3.3450    1.5380 hc        1 MOL      0.072087
     33 H13         8.0680   -5.0900    1.5770 hc        1 MOL      0.072087
     34 H14         7.8800   -5.1050    3.9630 hc        1 MOL     -0.008210
     35 H15         7.8280   -3.3750    4.0530 hc        1 MOL     -0.008210
     36 H16        10.0460   -2.9690    3.5700 hx        1 MOL      0.075158
     37 H17        10.4440   -4.6950    3.4980 hx        1 MOL      0.075158
     38 H18        10.7680   -3.6730    5.6860 hn        1 MOL      0.238555
     39 H19         9.2000   -3.5950    5.9530 hn        1 MOL      0.238555
     40 H20         9.8830   -4.9950    5.7580 hn        1 MOL      0.238555
     41 N4          3.7280   -3.1080    0.0970 n         1 MOL     -0.428070
     42 C13         3.5870   -1.8030    0.8080 c3        1 MOL      0.037959
     43 C14         3.6590   -0.5270    0.0470 c         1 MOL      0.420028
     44 O6          3.6790   -0.5660   -1.1800 o         1 MOL     -0.403503
     45 C15         2.2900   -1.7310    1.6370 c3        1 MOL     -0.280955
     46 C16         1.0010   -2.0700    0.8600 c         1 MOL      0.818787
     47 O7          0.7030   -1.4010   -0.1880 o         1 MOL     -0.722896
     48 O8          0.1960   -2.8970    1.3380 o         1 MOL     -0.722896
     49 H21         2.8890   -3.4780   -0.3400 hn        1 MOL      0.343818
     50 H22         4.3750   -1.7180    1.5600 h1        1 MOL      0.029801
     51 H23         2.1340   -0.7620    2.1070 hc        1 MOL      0.057839
     52 H24         2.2880   -2.5040    2.3990 hc        1 MOL      0.057839
     53 N5          3.8760    0.5580    0.7530 n         1 MOL     -0.492717
     54 C17         4.0700    1.9440    0.3190 c3        1 MOL     -0.068563
     55 C18         2.9140    2.4650   -0.5080 c         1 MOL      0.744398
     56 O9          1.8030    1.9100   -0.6310 o         1 MOL     -0.679703
     57 H25         3.7880    0.4780    1.7540 hn        1 MOL      0.296545
     58 H26         4.8990    1.9580   -0.3860 h1        1 MOL      0.096785
     59 H27         4.2730    2.6290    1.1350 h1        1 MOL      0.096785
     60 N6          3.1340    3.5980   -1.1600 n         1 MOL     -0.618861
     61 C19         2.2900    4.3570   -2.0290 c3        1 MOL      0.446311
     62 C20         2.6880    5.8380   -1.9480 c         1 MOL      0.446619
     63 O10         3.8560    6.1180   -1.7360 o         1 MOL     -0.530038
     64 C21         2.2000    3.7740   -3.4350 c3        1 MOL     -0.110252
     65 C22         1.6330    2.4050   -3.5670 c         1 MOL      0.609357
     66 O11         2.3130    1.5440   -4.2720 o         1 MOL     -0.649952
     67 O12         0.4710    2.1460   -3.0840 o         1 MOL     -0.649952
     68 H28         4.0090    4.0430   -0.9330 hn        1 MOL      0.276402
     69 H29         1.2590    4.2110   -1.6770 h1        1 MOL     -0.069794
     70 H30         3.1760    3.9290   -3.8870 hc        1 MOL      0.014752
     71 H31         1.5790    4.4840   -3.9850 hc        1 MOL      0.014752
     72 N7          1.8110    6.8090   -2.1560 n         1 MOL     -0.435123
     73 C23         0.3670    6.7320   -2.5760 c3        1 MOL     -0.083504
     74 C24        -0.5750    6.5810   -1.4040 c         1 MOL      0.639150
     75 O13        -0.4310    7.2510   -0.3510 o         1 MOL     -0.543969
     76 H32         2.1420    7.7640   -2.1050 hn        1 MOL      0.323778
     77 H33         0.1130    5.9250   -3.2550 h1        1 MOL      0.076163
     78 H34         0.1590    7.6900   -3.0590 h1        1 MOL      0.076163
     79 N8         -1.6040    5.7050   -1.4940 n         1 MOL     -0.661452
     80 C25        -2.2720    5.0860   -0.3620 c3        1 MOL      0.050882
     81 C26        -1.5490    3.8340    0.3110 c         1 MOL      0.930252
     82 O14        -1.0200    2.9960   -0.4610 o         1 MOL     -0.704971
     83 C27        -3.7470    4.7420   -0.8110 c3        1 MOL      0.472345
     84 C28        -4.7400    4.7400    0.3080 c3        1 MOL     -0.354677
     85 O15        -3.8200    3.6140   -1.6980 oh        1 MOL     -0.686928
     86 H35        -1.7310    5.3890   -2.4430 hn        1 MOL      0.312694
     87 H36        -2.3840    5.9270    0.3300 h1        1 MOL      0.047955
     88 H37        -4.0560    5.5690   -1.4560 h1        1 MOL     -0.011073
     89 H38        -4.0540    3.8820   -2.5900 ho        1 MOL      0.433036
     90 H39        -4.5640    3.9090    0.9970 hc        1 MOL      0.084585
     91 H40        -4.6910    5.6980    0.8260 hc        1 MOL      0.084585
     92 H41        -5.6580    4.7310   -0.2850 hc        1 MOL      0.084585
     93 N9         -1.6580    3.7840    1.6180 n         1 MOL     -0.865149
     94 C29        -1.0780    2.7770    2.5160 c3        1 MOL      0.138638
     95 C30        -1.4430    1.3580    2.2090 c         1 MOL      0.751692
     96 O16        -1.0510    0.7980    1.1950 o         1 MOL     -0.708469
     97 C31         0.5310    2.8280    2.7120 c3        1 MOL      0.338388
     98 C32         0.9040    4.3210    2.9520 c3        1 MOL      0.093782
     99 C33         0.7510    2.0000    3.9940 c3        1 MOL     -0.231181
    100 C34         2.4380    4.5140    3.1960 c3        1 MOL     -0.353317
    101 H42        -2.1850    4.5260    2.0480 hn        1 MOL      0.342670
    102 H43        -1.4970    2.9450    3.5080 h1        1 MOL      0.029961
    103 H44         1.0830    2.4530    1.8450 hc        1 MOL     -0.051464
    104 H45         0.3150    4.7040    3.7810 hc        1 MOL     -0.020028
    105 H46         0.6510    4.9370    2.0920 hc        1 MOL     -0.020028
    106 H47         0.6240    0.9510    3.7290 hc        1 MOL      0.027611
    107 H48         1.7670    2.2370    4.3130 hc        1 MOL      0.027611
    108 H49         0.0910    2.3890    4.7670 hc        1 MOL      0.027611
    109 H50         2.7440    5.5120    2.8860 hc        1 MOL      0.090629
    110 H51         2.6310    4.2340    4.2340 hc        1 MOL      0.090629
    111 H52         3.0120    3.9210    2.4740 hc        1 MOL      0.090629
    112 N10        -2.1220    0.6220    3.0860 n         1 MOL     -0.345006
    113 C35        -2.6880   -0.7210    2.8110 c3        1 MOL     -0.111723
    114 C36        -4.1820   -0.7190    2.6480 c         1 MOL      0.399980
    115 O17        -4.7980   -1.7500    2.9670 o         1 MOL     -0.542743
    116 C37        -2.2270   -1.7320    3.8320 c3        1 MOL      0.541273
    117 C38        -2.5670   -1.3250    5.2300 c3        1 MOL     -0.180753
    118 O18        -0.8810   -1.9150    3.5960 oh        1 MOL     -0.672334
    119 H53        -2.3560    1.1560    3.9090 hn        1 MOL      0.195680
    120 H54        -2.3490   -1.1100    1.8480 h1        1 MOL      0.091593
    121 H55        -2.6780   -2.7040    3.6330 h1        1 MOL     -0.036344
    122 H56        -0.7950   -2.2780    2.7160 ho        1 MOL      0.404517
    123 H57        -2.4930   -2.1620    5.9280 hc        1 MOL      0.029666
    124 H58        -1.9820   -0.4610    5.5490 hc        1 MOL      0.029666
    125 H59        -3.6060   -1.0030    5.2380 hc        1 MOL      0.029666
    126 N11        -4.6890    0.4180    2.2780 n         1 MOL      0.004452
    127 C39        -6.1210    0.7420    2.2420 c3        1 MOL     -0.123562
    128 C40        -6.9530    0.1020    1.1360 c         1 MOL      0.446186
    129 O19        -7.5140    0.7150    0.2430 o         1 MOL     -0.498934
    130 C41        -6.3960    2.1930    2.3230 c3        1 MOL      0.467531
    131 C42        -7.7720    2.4120    3.0170 c3        1 MOL     -0.368419
    132 O20        -5.4320    2.8360    3.1610 oh        1 MOL     -0.669517
    133 H60        -4.1090    1.2500    2.2380 hn        1 MOL      0.080651
    134 H61        -6.4550    0.2590    3.1590 h1        1 MOL      0.064389
    135 H62        -6.3110    2.6970    1.3540 h1        1 MOL     -0.049301
    136 H63        -5.7000    3.7360    3.3700 ho        1 MOL      0.413082
    137 H64        -8.4910    1.9660    2.3260 hc        1 MOL      0.093160
    138 H65        -7.7860    2.0310    4.0410 hc        1 MOL      0.093160
    139 H66        -7.9520    3.4790    3.0830 hc        1 MOL      0.093160
    140 N12        -6.8770   -1.2250    1.1800 n         1 MOL     -0.294479
    141 C43        -6.8590   -2.2670    0.0950 c3        1 MOL      0.019886
    142 C44        -5.6260   -2.1080   -0.7820 c         1 MOL      0.667005
    143 O21        -5.0720   -1.0080   -0.8400 o         1 MOL     -0.523187
    144 C45        -8.1820   -2.2960   -0.7270 c3        1 MOL     -0.297380
    145 C46        -9.4680   -2.4710    0.0990 c3        1 MOL      0.399121
    146 C47       -10.8190   -2.1300   -0.5530 c3        1 MOL      0.046510
    147 C48       -12.0760   -2.1960    0.2980 c3        1 MOL     -0.052174
    148 N13       -12.4840   -3.5410    0.8160 n4        1 MOL     -0.234573
    149 H67        -6.4430   -1.5150    2.0430 hn        1 MOL      0.189348
    150 H68        -6.7750   -3.1960    0.6640 h1        1 MOL      0.073724
    151 H69        -8.0730   -3.1900   -1.3580 hc        1 MOL      0.067519
    152 H70        -8.1910   -1.4530   -1.4190 hc        1 MOL      0.067519
    153 H71        -9.2470   -1.9090    1.0010 hc        1 MOL     -0.117874
    154 H72        -9.5350   -3.5360    0.3250 hc        1 MOL     -0.117874
    155 H73       -10.8440   -2.6990   -1.4800 hc        1 MOL      0.014411
    156 H74       -10.8440   -1.0670   -0.8270 hc        1 MOL      0.014411
    157 H75       -12.8550   -1.8550   -0.3730 hx        1 MOL      0.093068
    158 H76       -11.9360   -1.4560    1.0870 hx        1 MOL      0.093068
    159 H77       -12.3890   -4.2680    0.1210 hn        1 MOL      0.226336
    160 H78       -11.9320   -3.8820    1.5990 hn        1 MOL      0.226336
    161 H79       -13.4650   -3.5270    1.0460 hn        1 MOL      0.226336
    162 N14        -5.0590   -3.1840   -1.4350 n         1 MOL     -0.599614
    163 C49        -3.8310   -3.1100   -2.1800 c3        1 MOL      0.162785
    164 C50        -2.6050   -2.6980   -1.2950 c         1 MOL      0.303055
    165 O22        -1.9370   -1.7020   -1.6260 o         1 MOL     -0.528070
    166 C51        -3.5050   -4.4400   -2.9220 c3        1 MOL      0.074359
    167 C52        -4.3770   -4.7060   -4.1370 c3        1 MOL     -0.196514
    168 C53        -3.9950   -6.0860   -4.6710 c         1 MOL      0.650930
    169 O23        -4.5210   -7.1560   -4.2260 o         1 MOL     -0.627459
    170 O24        -3.0200   -6.0870   -5.4760 o         1 MOL     -0.627459
    171 H80        -5.4740   -4.0770   -1.2170 hn        1 MOL      0.328243
    172 H81        -3.9760   -2.3650   -2.9580 h1        1 MOL      0.061592
    173 H82        -3.5120   -5.2770   -2.2230 hc        1 MOL      0.046944
    174 H83        -2.4610   -4.3620   -3.2150 hc        1 MOL      0.046944
    175 H84        -4.3340   -3.9190   -4.8980 hc        1 MOL      0.012166
    176 H85        -5.4000   -4.8010   -3.7860 hc        1 MOL      0.012166
    177 N15        -2.2130   -3.4780   -0.2580 n         1 MOL     -0.267614
    178 C54        -2.7630   -4.7820    0.2470 c3        1 MOL     -0.013852
    179 H86        -2.5370   -4.8840    1.3090 h1        1 MOL      0.034037
    180 H87        -3.8430   -4.8020    0.1030 h1        1 MOL      0.034037
    181 H88        -2.3080   -5.6060   -0.3020 h1        1 MOL      0.034037
    182 H89        -1.3520   -3.1300    0.1190 hn        1 MOL      0.314005
    183 Ca1        -0.5220    0.6180   -1.3400 Ca        1 MOL      1.862866
    184 O25        -1.9320    0.5100   -3.6620 oh        1 MOL     -0.888228
    185 H90        -2.5630    1.0680   -4.1130 ho        1 MOL      0.417061
    186 H91        -2.0120   -0.3400   -4.1100 ho        1 MOL      0.417061
    187 O26         1.3930   -0.6100   -3.0500 oh        1 MOL     -0.888228
    188 H92         1.4990    0.0740   -3.7160 ho        1 MOL      0.417061
    189 H93         2.2840   -0.8970   -2.8540 ho        1 MOL      0.417061
    190 O27        -3.1860    0.8800   -0.9980 oh        1 MOL     -0.888228
    191 H94        -3.6180    1.7310   -1.1030 ho        1 MOL      0.417061
    192 H95        -3.9090    0.2540   -0.9560 ho        1 MOL      0.417061
@<TRIPOS>BOND
     1    1    2 1   
     2    1    4 1   
     3    1    5 1   
     4    1    6 1   
     5    2    3 2   
     6    2    7 1   
     7    7    8 1   
     8    7   15 1   
     9    8    9 1   
    10    8   11 1   
    11    8   16 1   
    12    9   10 2   
    13    9   19 1   
    14   11   12 1   
    15   11   17 1   
    16   11   18 1   
    17   12   13 1   
    18   12   14 1   
    19   19   20 1   
    20   19   28 1   
    21   20   21 1   
    22   20   23 1   
    23   20   29 1   
    24   21   22 2   
    25   21   41 1   
    26   23   24 1   
    27   23   30 1   
    28   23   31 1   
    29   24   25 1   
    30   24   32 1   
    31   24   33 1   
    32   25   26 1   
    33   25   34 1   
    34   25   35 1   
    35   26   27 1   
    36   26   36 1   
    37   26   37 1   
    38   27   38 1   
    39   27   39 1   
    40   27   40 1   
    41   41   42 1   
    42   41   49 1   
    43   42   43 1   
    44   42   45 1   
    45   42   50 1   
    46   43   44 2   
    47   43   53 1   
    48   45   46 1   
    49   45   51 1   
    50   45   52 1   
    51   46   47 1   
    52   46   48 1   
    53   53   54 1   
    54   53   57 1   
    55   54   55 1   
    56   54   58 1   
    57   54   59 1   
    58   55   56 2   
    59   55   60 1   
    60   60   61 1   
    61   60   68 1   
    62   61   62 1   
    63   61   64 1   
    64   61   69 1   
    65   62   63 2   
    66   62   72 1   
    67   64   65 1   
    68   64   70 1   
    69   64   71 1   
    70   65   66 1   
    71   65   67 1   
    72   72   73 1   
    73   72   76 1   
    74   73   74 1   
    75   73   77 1   
    76   73   78 1   
    77   74   75 2   
    78   74   79 1   
    79   79   80 1   
    80   79   86 1   
    81   80   81 1   
    82   80   83 1   
    83   80   87 1   
    84   81   82 2   
    85   81   93 1   
    86   83   84 1   
    87   83   85 1   
    88   83   88 1   
    89   84   90 1   
    90   84   91 1   
    91   84   92 1   
    92   85   89 1   
    93   93   94 1   
    94   93  101 1   
    95   94   95 1   
    96   94   97 1   
    97   94  102 1   
    98   95   96 2   
    99   95  112 1   
   100   97   98 1   
   101   97   99 1   
   102   97  103 1   
   103   98  100 1   
   104   98  104 1   
   105   98  105 1   
   106   99  106 1   
   107   99  107 1   
   108   99  108 1   
   109  100  109 1   
   110  100  110 1   
   111  100  111 1   
   112  112  113 1   
   113  112  119 1   
   114  113  114 1   
   115  113  116 1   
   116  113  120 1   
   117  114  115 2   
   118  114  126 1   
   119  116  117 1   
   120  116  118 1   
   121  116  121 1   
   122  117  123 1   
   123  117  124 1   
   124  117  125 1   
   125  118  122 1   
   126  126  127 1   
   127  126  133 1   
   128  127  128 1   
   129  127  130 1   
   130  127  134 1   
   131  128  129 2   
   132  128  140 1   
   133  130  131 1   
   134  130  132 1   
   135  130  135 1   
   136  131  137 1   
   137  131  138 1   
   138  131  139 1   
   139  132  136 1   
   140  140  141 1   
   141  140  149 1   
   142  141  142 1   
   143  141  144 1   
   144  141  150 1   
   145  142  143 2   
   146  142  162 1   
   147  144  145 1   
   148  144  151 1   
   149  144  152 1   
   150  145  146 1   
   151  145  153 1   
   152  145  154 1   
   153  146  147 1   
   154  146  155 1   
   155  146  156 1   
   156  147  148 1   
   157  147  157 1   
   158  147  158 1   
   159  148  159 1   
   160  148  160 1   
   161  148  161 1   
   162  162  163 1   
   163  162  171 1   
   164  163  164 1   
   165  163  166 1   
   166  163  172 1   
   167  164  165 2   
   168  164  177 1   
   169  166  167 1   
   170  166  173 1   
   171  166  174 1   
   172  167  168 1   
   173  167  175 1   
   174  167  176 1   
   175  168  169 1   
   176  168  170 1   
   177  177  178 1   
   178  177  182 1   
   179  178  179 1   
   180  178  180 1   
   181  178  181 1   
   182  184  185 1   
   183  184  186 1   
   184  187  188 1   
   185  187  189 1   
   186  190  191 1   
   187  190  192 1   
@<TRIPOS>SUBSTRUCTURE
     1 MOL         1 TEMP              0 ****  ****    0 ROOT
