@<TRIPOS>MOLECULE
MOL
  195   189     1     0     0
SMALL
resp


@<TRIPOS>ATOM
      1 C1         -1.1130    3.9380   -3.0260 c3        1 MOL     -0.192972
      2 C2         -0.1020    3.8430   -1.8190 c         1 MOL      0.504702
      3 O1          0.3830    2.7450   -1.5490 o         1 MOL     -0.430222
      4 H1         -1.2340    2.9520   -3.4760 hc        1 MOL      0.051812
      5 H2         -2.0780    4.2930   -2.6660 hc        1 MOL      0.051812
      6 H3         -0.7250    4.6320   -3.7720 hc        1 MOL      0.051812
      7 N1         -0.0200    4.9500   -0.9760 n         1 MOL     -0.610598
      8 C3          0.6360    4.8640    0.2920 c3        1 MOL     -0.224135
      9 C4          2.1360    4.5250    0.2820 c         1 MOL      0.775608
     10 O2          2.7130    4.0090    1.2630 o         1 MOL     -0.545853
     11 C5         -0.1080    4.0420    1.3240 c3        1 MOL     -0.396656
     12 C6         -1.5480    4.5040    1.3780 c         1 MOL      0.698627
     13 O3         -2.5460    3.7390    1.0490 o         1 MOL     -0.666442
     14 O4         -1.8320    5.5860    1.9070 o         1 MOL     -0.666442
     15 H4         -0.4600    5.8000   -1.2930 hn        1 MOL      0.365703
     16 H5          0.6010    5.8980    0.6430 h1        1 MOL      0.131276
     17 H6          0.2530    4.2190    2.3360 hc        1 MOL      0.181938
     18 H7         -0.0190    3.0020    1.0330 hc        1 MOL      0.181938
     19 N2          2.6990    4.7710   -0.8860 n         1 MOL     -0.564089
     20 C7          4.0710    4.4620   -1.2780 c3        1 MOL     -0.044343
     21 C8          5.0520    5.3990   -0.5550 c         1 MOL      0.461451
     22 O5          4.6380    6.4160   -0.0120 o         1 MOL     -0.548391
     23 C9          4.2170    4.7010   -2.7500 c3        1 MOL      0.201939
     24 C10         4.4020    6.1600   -3.2830 c3        1 MOL      0.158307
     25 C11         3.1080    3.9390   -3.4820 c3        1 MOL     -0.205676
     26 C12         4.9120    6.2090   -4.7420 c3        1 MOL     -0.329978
     27 H8          2.1780    5.1860   -1.6500 hn        1 MOL      0.333256
     28 H9          4.1750    3.4010   -1.0310 h1        1 MOL      0.137714
     29 H10         5.1220    4.1500   -3.0010 hc        1 MOL      0.027431
     30 H11         5.1170    6.6380   -2.6080 hc        1 MOL     -0.035662
     31 H12         3.4560    6.7010   -3.1750 hc        1 MOL     -0.035662
     32 H13         2.8700    3.0190   -2.9360 hc        1 MOL      0.041870
     33 H14         2.2080    4.5420   -3.5760 hc        1 MOL      0.041870
     34 H15         3.3870    3.5080   -4.4420 hc        1 MOL      0.041870
     35 H16         4.2330    5.7400   -5.4570 hc        1 MOL      0.071579
     36 H17         5.1100    7.2460   -4.9960 hc        1 MOL      0.071579
     37 H18         5.8720    5.6850   -4.7490 hc        1 MOL      0.071579
     38 N3          6.3400    5.0120   -0.4430 n         1 MOL     -0.629013
     39 C13         6.9460    3.6810   -0.7370 c3        1 MOL      0.446236
     40 C14         7.4930    3.1670    0.5880 c         1 MOL      0.376891
     41 O6          8.6450    2.8330    0.6840 o         1 MOL     -0.453946
     42 C15         8.0090    3.8820   -1.9070 c3        1 MOL     -0.560470
     43 C16         8.7020    2.5650   -2.2410 c         1 MOL      0.809326
     44 O7          8.2720    1.4660   -1.9600 o         1 MOL     -0.729059
     45 O8          9.7420    2.6590   -2.9870 o         1 MOL     -0.729059
     46 H19         6.9870    5.7750   -0.2920 hn        1 MOL      0.341336
     47 H20         6.2480    2.9040   -1.0610 h1        1 MOL     -0.022921
     48 H21         8.8020    4.5960   -1.7100 hc        1 MOL      0.115442
     49 H22         7.4160    4.2200   -2.7470 hc        1 MOL      0.115442
     50 N4          6.6850    2.9750    1.6210 n         1 MOL     -0.301003
     51 C17         7.0560    2.6220    2.9980 c3        1 MOL     -0.252667
     52 C18         7.2790    1.1640    3.2070 c         1 MOL      0.646103
     53 O9          8.2340    0.8020    3.8970 o         1 MOL     -0.587472
     54 H23         5.7230    3.2080    1.4210 hn        1 MOL      0.273458
     55 H24         6.2180    2.9130    3.6210 h1        1 MOL      0.115274
     56 H25         7.9520    3.1470    3.3490 h1        1 MOL      0.115274
     57 N5          6.3530    0.3070    2.7470 n         1 MOL     -0.374644
     58 C19         6.3670   -1.1820    3.1130 c3        1 MOL     -0.019312
     59 C20         6.8680   -2.1340    2.0020 c         1 MOL      0.427055
     60 O10         7.4620   -3.1770    2.2490 o         1 MOL     -0.520695
     61 C21         4.9650   -1.5940    3.5060 c3        1 MOL     -0.066744
     62 C22         3.9420   -1.3150    2.4150 c         1 MOL      0.676940
     63 O11         3.3810   -2.2830    1.8350 o         1 MOL     -0.657821
     64 O12         3.4120   -0.2150    2.2400 o         1 MOL     -0.657821
     65 H26         5.6080    0.6680    2.1780 hn        1 MOL      0.155155
     66 H27         6.9830   -1.3320    3.9930 h1        1 MOL      0.087934
     67 H28         4.7010   -0.9860    4.3760 hc        1 MOL      0.014826
     68 H29         4.9300   -2.6390    3.8160 hc        1 MOL      0.014826
     69 N6          6.6140   -1.6820    0.7420 n         1 MOL     -0.128872
     70 C23         6.9310   -2.5060   -0.4580 c3        1 MOL     -0.324706
     71 C24         6.1430   -3.8040   -0.4930 c         1 MOL      0.437803
     72 O13         6.4960   -4.6720   -1.3290 o         1 MOL     -0.568673
     73 H30         6.3500   -0.7120    0.6330 hn        1 MOL      0.222395
     74 H31         7.9970   -2.7240   -0.3970 h1        1 MOL      0.174064
     75 H32         6.6970   -1.8980   -1.3380 h1        1 MOL      0.174064
     76 N7          5.1810   -4.0330    0.4070 n         1 MOL      0.097520
     77 C25         4.2990   -5.2230    0.4680 c3        1 MOL      0.102852
     78 C26         3.5170   -5.5710   -0.8530 c         1 MOL      0.467109
     79 O14         3.4190   -6.8140   -1.0750 o         1 MOL     -0.509475
     80 C27         4.9840   -6.4860    1.2660 c3        1 MOL      0.064550
     81 C28         5.2290   -6.0720    2.6880 c3        1 MOL     -0.180449
     82 C29         5.5340   -7.2700    3.5090 c         1 MOL      0.598948
     83 N8          6.6990   -7.2540    4.1590 n         1 MOL     -0.777266
     84 O15         4.7640   -8.2100    3.6640 o         1 MOL     -0.562103
     85 H33         5.0000   -3.3390    1.1210 hn        1 MOL     -0.135250
     86 H34         3.4910   -4.8700    1.1140 h1        1 MOL      0.057432
     87 H35         5.8940   -6.6170    0.6740 hc        1 MOL     -0.007557
     88 H36         4.2480   -7.2780    1.1210 hc        1 MOL     -0.007557
     89 H37         4.3750   -5.4900    3.0350 hc        1 MOL      0.069904
     90 H38         6.1090   -5.4350    2.6810 hc        1 MOL      0.069904
     91 H39         7.3210   -6.4910    3.9420 hn        1 MOL      0.348079
     92 H40         6.9880   -8.0580    4.7060 hn        1 MOL      0.348079
     93 N9          3.2070   -4.5680   -1.7390 n         1 MOL     -0.537675
     94 C30         2.6350   -4.7360   -3.0690 c3        1 MOL      0.086086
     95 C31         1.2970   -4.1200   -3.4150 c         1 MOL      0.503019
     96 O16         0.7130   -4.6780   -4.3530 o         1 MOL     -0.564557
     97 C32         3.7300   -4.3560   -4.1300 c3        1 MOL      0.181125
     98 C33         4.2290   -2.8500   -3.9030 c3        1 MOL     -0.334089
     99 C34         4.8940   -5.3040   -4.2730 c3        1 MOL     -0.334089
    100 H41         3.3850   -3.6180   -1.4480 hn        1 MOL      0.261614
    101 H42         2.3380   -5.7680   -3.2030 h1        1 MOL      0.086713
    102 H43         3.2520   -4.3920   -5.1070 hc        1 MOL     -0.016188
    103 H44         4.8650   -2.8170   -3.0180 hc        1 MOL      0.086716
    104 H45         4.7840   -2.5430   -4.7860 hc        1 MOL      0.086716
    105 H46         3.4060   -2.1480   -3.7270 hc        1 MOL      0.086716
    106 H47         4.4830   -6.2630   -4.5910 hc        1 MOL      0.086716
    107 H48         5.5220   -4.9200   -5.0790 hc        1 MOL      0.086716
    108 H49         5.4760   -5.4870   -3.3770 hc        1 MOL      0.086716
    109 N10         0.8470   -3.1020   -2.6590 n         1 MOL     -0.361601
    110 C35        -0.4190   -2.4560   -2.6130 c3        1 MOL      0.138919
    111 C36        -1.0700   -2.5660   -1.2440 c         1 MOL      0.540017
    112 O17        -0.4700   -3.0490   -0.2950 o         1 MOL     -0.544664
    113 C37        -0.2890   -0.9340   -2.8750 c3        1 MOL     -0.260990
    114 C38        -1.5930   -0.0990   -2.7690 c         1 MOL      0.630445
    115 N11        -1.7020    0.7740   -1.8020 n         1 MOL     -0.765561
    116 O18        -2.4720   -0.2830   -3.6130 o         1 MOL     -0.571608
    117 H50         1.4520   -2.8800   -1.8800 hn        1 MOL      0.260733
    118 H51        -1.0970   -2.9150   -3.3290 h1        1 MOL      0.059235
    119 H52         0.1470   -0.6470   -3.8310 hc        1 MOL      0.083175
    120 H53         0.4600   -0.5020   -2.2090 hc        1 MOL      0.083175
    121 H54        -0.8810    1.1320   -1.3430 hn        1 MOL      0.369981
    122 H55        -2.5310    1.3600   -1.7720 hn        1 MOL      0.369981
    123 N12        -2.3180   -2.1710   -1.1620 n         1 MOL     -0.396344
    124 C39        -3.2840   -2.4160   -0.1210 c3        1 MOL      0.080804
    125 C40        -4.6790   -2.4970   -0.7580 c         1 MOL      0.637883
    126 O19        -4.9000   -1.8430   -1.7760 o         1 MOL     -0.540242
    127 C41        -3.1960   -1.2770    0.9130 c3        1 MOL     -0.106458
    128 C42        -3.6640   -1.6570    2.3110 ca        1 MOL      0.001559
    129 C43        -4.8240   -1.1200    2.9110 ca        1 MOL     -0.115609
    130 C44        -2.8710   -2.4980    3.1390 ca        1 MOL     -0.115609
    131 C45        -5.2820   -1.4070    4.2050 ca        1 MOL     -0.315037
    132 C46        -3.2990   -2.8520    4.4800 ca        1 MOL     -0.315037
    133 C47        -4.4810   -2.2940    5.0070 ca        1 MOL      0.350077
    134 O20        -4.8340   -2.7240    6.2500 oh        1 MOL     -0.483420
    135 H56        -2.7120   -1.8630   -2.0460 hn        1 MOL      0.205297
    136 H57        -3.0030   -3.3790    0.2730 h1        1 MOL      0.060179
    137 H58        -3.8200   -0.4510    0.5720 hc        1 MOL      0.072540
    138 H59        -2.2110   -0.8130    0.9690 hc        1 MOL      0.072540
    139 H60        -5.4080   -0.4370    2.3050 ha        1 MOL      0.169376
    140 H61        -2.0040   -2.9710    2.7220 ha        1 MOL      0.169376
    141 H62        -6.2370   -1.0160    4.5080 ha        1 MOL      0.156864
    142 H63        -2.7080   -3.5020    5.1030 ha        1 MOL      0.156864
    143 H64        -5.5620   -2.2490    6.6520 ho        1 MOL      0.350921
    144 N13        -5.5700   -3.2940   -0.2050 n         1 MOL     -0.686075
    145 C48        -6.9790   -3.2140   -0.5100 c3        1 MOL      0.371922
    146 C49        -7.8490   -2.5110    0.5830 c         1 MOL      0.404919
    147 O21        -8.3220   -3.1840    1.5260 o         1 MOL     -0.495691
    148 C50        -7.5230   -4.6400   -0.7740 c3        1 MOL     -0.030806
    149 C51        -8.9300   -4.6480   -1.4710 c3        1 MOL     -0.285885
    150 C52        -9.5660   -6.0420   -1.2600 c         1 MOL      0.711751
    151 O22       -10.3270   -6.2320   -0.3000 o         1 MOL     -0.709911
    152 O23        -9.3580   -6.9080   -2.1770 o         1 MOL     -0.709911
    153 H65        -5.3280   -3.8070    0.6360 hn        1 MOL      0.327002
    154 H66        -7.0490   -2.6660   -1.4550 h1        1 MOL      0.015877
    155 H67        -7.5730   -5.1420    0.1800 hc        1 MOL      0.020273
    156 H68        -6.7760   -5.1440   -1.3860 hc        1 MOL      0.020273
    157 H69        -8.8680   -4.4100   -2.5330 hc        1 MOL      0.067489
    158 H70        -9.4620   -3.8890   -0.9030 hc        1 MOL      0.067489
    159 N14        -7.9430   -1.1570    0.5000 n         1 MOL     -0.392953
    160 C53        -7.4670   -0.2820   -0.6270 c3        1 MOL     -0.306196
    161 C54        -8.2910   -0.4760   -1.9690 c         1 MOL      0.562294
    162 O24        -9.4660   -0.7790   -1.9250 o         1 MOL     -0.524388
    163 C55        -7.7380    1.1220   -0.0620 c3        1 MOL      0.465088
    164 C56        -7.2380    2.2710   -0.9460 c3        1 MOL     -0.282735
    165 C57        -7.0880    3.4780   -0.0750 c         1 MOL      0.867903
    166 O25        -5.9570    3.9990   -0.0070 o         1 MOL     -0.788394
    167 O26        -8.0430    3.8270    0.6290 o         1 MOL     -0.788394
    168 H71        -8.3350   -0.6700    1.3010 hn        1 MOL      0.221751
    169 H72        -6.4000   -0.4640   -0.7700 h1        1 MOL      0.120403
    170 H73        -7.1090    1.0860    0.8350 hc        1 MOL     -0.052308
    171 H74        -8.7810    1.3390    0.1220 hc        1 MOL     -0.052308
    172 H75        -7.9680    2.4270   -1.7430 hc        1 MOL      0.005135
    173 H76        -6.3460    1.9130   -1.4540 hc        1 MOL      0.005135
    174 N15        -7.5670   -0.3240   -3.1090 n         1 MOL     -0.270099
    175 C58        -8.0540   -0.6160   -4.4540 c3        1 MOL     -0.237229
    176 H77        -8.6910    0.2000   -4.7940 h1        1 MOL      0.097893
    177 H78        -7.2070   -0.7220   -5.1320 h1        1 MOL      0.097893
    178 H79        -8.6270   -1.5430   -4.4390 h1        1 MOL      0.097893
    179 H80        -6.5790   -0.1530   -3.0910 hn        1 MOL      0.283604
    180 Ca1        -4.4970    5.5030    1.5750 Ca        1 MOL      1.716615
    181 O27        -5.8370    7.2180   -0.0290 oh        1 MOL     -0.862922
    182 H81        -6.7960    7.1760    0.0060 ho        1 MOL      0.404106
    183 H82        -5.6630    7.7370   -0.8140 ho        1 MOL      0.404106
    184 O28        -7.0750    5.4130    2.4390 oh        1 MOL     -0.862922
    185 H83        -7.6340    6.1210    2.7570 ho        1 MOL      0.404106
    186 H84        -7.6470    4.8620    1.9020 ho        1 MOL      0.404106
    187 O29        -3.9350    8.0190    2.3690 oh        1 MOL     -0.862922
    188 H85        -3.4130    8.4380    3.0540 ho        1 MOL      0.404106
    189 H86        -4.6310    8.6450    2.1860 ho        1 MOL      0.404106
    190 O30        -4.9470    3.1130    2.6370 oh        1 MOL     -0.862922
    191 H87        -4.3020    2.5570    3.0750 ho        1 MOL      0.404106
    192 H88        -5.6790    3.1550    3.2440 ho        1 MOL      0.404106
    193 O31        -3.9250    5.5690    4.2570 oh        1 MOL     -0.862922
    194 H89        -4.6110    5.7350    4.9050 ho        1 MOL      0.404106
    195 H90        -3.1040    5.6730    4.7270 ho        1 MOL      0.404106
@<TRIPOS>BOND
     1    1    2 1   
     2    1    4 1   
     3    1    5 1   
     4    1    6 1   
     5    2    3 2   
     6    2    7 1   
     7    7    8 1   
     8    7   15 1   
     9    8    9 1   
    10    8   11 1   
    11    8   16 1   
    12    9   10 2   
    13    9   19 1   
    14   11   12 1   
    15   11   17 1   
    16   11   18 1   
    17   12   13 1   
    18   12   14 1   
    19   19   20 1   
    20   19   27 1   
    21   20   21 1   
    22   20   23 1   
    23   20   28 1   
    24   21   22 2   
    25   21   38 1   
    26   23   24 1   
    27   23   25 1   
    28   23   29 1   
    29   24   26 1   
    30   24   30 1   
    31   24   31 1   
    32   25   32 1   
    33   25   33 1   
    34   25   34 1   
    35   26   35 1   
    36   26   36 1   
    37   26   37 1   
    38   38   39 1   
    39   38   46 1   
    40   39   40 1   
    41   39   42 1   
    42   39   47 1   
    43   40   41 2   
    44   40   50 1   
    45   42   43 1   
    46   42   48 1   
    47   42   49 1   
    48   43   44 1   
    49   43   45 1   
    50   50   51 1   
    51   50   54 1   
    52   51   52 1   
    53   51   55 1   
    54   51   56 1   
    55   52   53 2   
    56   52   57 1   
    57   57   58 1   
    58   57   65 1   
    59   58   59 1   
    60   58   61 1   
    61   58   66 1   
    62   59   60 2   
    63   59   69 1   
    64   61   62 1   
    65   61   67 1   
    66   61   68 1   
    67   62   63 1   
    68   62   64 1   
    69   69   70 1   
    70   69   73 1   
    71   70   71 1   
    72   70   74 1   
    73   70   75 1   
    74   71   72 2   
    75   71   76 1   
    76   76   77 1   
    77   76   85 1   
    78   77   78 1   
    79   77   80 1   
    80   77   86 1   
    81   78   79 2   
    82   78   93 1   
    83   80   81 1   
    84   80   87 1   
    85   80   88 1   
    86   81   82 1   
    87   81   89 1   
    88   81   90 1   
    89   82   83 1   
    90   82   84 2   
    91   83   91 1   
    92   83   92 1   
    93   93   94 1   
    94   93  100 1   
    95   94   95 1   
    96   94   97 1   
    97   94  101 1   
    98   95   96 2   
    99   95  109 1   
   100   97   98 1   
   101   97   99 1   
   102   97  102 1   
   103   98  103 1   
   104   98  104 1   
   105   98  105 1   
   106   99  106 1   
   107   99  107 1   
   108   99  108 1   
   109  109  110 1   
   110  109  117 1   
   111  110  111 1   
   112  110  113 1   
   113  110  118 1   
   114  111  112 2   
   115  111  123 1   
   116  113  114 1   
   117  113  119 1   
   118  113  120 1   
   119  114  115 1   
   120  114  116 2   
   121  115  121 1   
   122  115  122 1   
   123  123  124 1   
   124  123  135 1   
   125  124  125 1   
   126  124  127 1   
   127  124  136 1   
   128  125  126 2   
   129  125  144 1   
   130  127  128 1   
   131  127  137 1   
   132  127  138 1   
   133  128  129 ar  
   134  128  130 ar  
   135  129  131 ar  
   136  129  139 1   
   137  130  132 ar  
   138  130  140 1   
   139  131  133 ar  
   140  131  141 1   
   141  132  133 ar  
   142  132  142 1   
   143  133  134 1   
   144  134  143 1   
   145  144  145 1   
   146  144  153 1   
   147  145  146 1   
   148  145  148 1   
   149  145  154 1   
   150  146  147 2   
   151  146  159 1   
   152  148  149 1   
   153  148  155 1   
   154  148  156 1   
   155  149  150 1   
   156  149  157 1   
   157  149  158 1   
   158  150  151 1   
   159  150  152 1   
   160  159  160 1   
   161  159  168 1   
   162  160  161 1   
   163  160  163 1   
   164  160  169 1   
   165  161  162 2   
   166  161  174 1   
   167  163  164 1   
   168  163  170 1   
   169  163  171 1   
   170  164  165 1   
   171  164  172 1   
   172  164  173 1   
   173  165  166 1   
   174  165  167 1   
   175  174  175 1   
   176  174  179 1   
   177  175  176 1   
   178  175  177 1   
   179  175  178 1   
   180  181  182 1   
   181  181  183 1   
   182  184  185 1   
   183  184  186 1   
   184  187  188 1   
   185  187  189 1   
   186  190  191 1   
   187  190  192 1   
   188  193  194 1   
   189  193  195 1   
@<TRIPOS>SUBSTRUCTURE
     1 MOL         1 TEMP              0 ****  ****    0 ROOT
