@<TRIPOS>MOLECULE
MOL
  201   193     1     0     0
SMALL
resp


@<TRIPOS>ATOM
      1 C1         -2.4550    3.4950    3.5580 c3        1 MOL     -0.382618
      2 C2         -3.8300    2.8880    3.5290 c         1 MOL      0.808643
      3 O1         -4.0190    1.7830    4.0020 o         1 MOL     -0.666968
      4 H1         -2.4370    4.3190    4.2710 hc        1 MOL      0.097216
      5 H2         -1.7290    2.7390    3.8580 hc        1 MOL      0.097216
      6 H3         -2.2020    3.8700    2.5650 hc        1 MOL      0.097216
      7 N1         -4.7710    3.5920    2.9050 n         1 MOL     -0.729911
      8 C3         -6.1480    3.2060    2.5410 c3        1 MOL      0.403269
      9 C4         -6.0720    2.1250    1.4310 c         1 MOL      0.548513
     10 O2         -5.1390    2.1220    0.6220 o         1 MOL     -0.453584
     11 C5         -6.9480    4.4390    2.1480 c3        1 MOL     -0.022311
     12 C6         -6.2320    5.2020    1.0000 c         1 MOL      0.377152
     13 O3         -6.7850    5.0270   -0.0980 o         1 MOL     -0.591507
     14 O4         -5.2090    5.9350    1.1610 o         1 MOL     -0.591507
     15 H4         -4.4270    4.4470    2.4980 hn        1 MOL      0.323815
     16 H5         -6.6040    2.9120    3.4880 h1        1 MOL     -0.021703
     17 H6         -6.9560    5.1220    2.9880 hc        1 MOL     -0.038700
     18 H7         -7.9420    4.1120    1.8610 hc        1 MOL     -0.038700
     19 N2         -7.0150    1.1620    1.3900 n         1 MOL     -0.663097
     20 C7         -7.0380   -0.0680    0.5300 c3        1 MOL      0.121318
     21 C8         -8.1470   -0.0200   -0.5030 c         1 MOL      0.618380
     22 O5         -9.2860    0.3710   -0.2850 o         1 MOL     -0.625385
     23 C9         -7.2290   -1.3760    1.3710 c3        1 MOL     -0.191029
     24 C10        -6.2230   -1.7040    2.4430 c3        1 MOL     -0.040161
     25 C11        -6.2910   -3.1450    2.9050 c3        1 MOL     -0.431360
     26 C12        -5.1970   -3.5460    3.8780 c3        1 MOL      0.132338
     27 N3         -5.2340   -4.9510    4.3070 n4        1 MOL     -0.418353
     28 H8         -7.6440    1.2360    2.1780 hn        1 MOL      0.276187
     29 H9         -6.1050   -0.1700   -0.0380 h1        1 MOL      0.032150
     30 H10        -7.2390   -2.2140    0.6790 hc        1 MOL      0.095930
     31 H11        -8.1600   -1.4150    1.9350 hc        1 MOL      0.095930
     32 H12        -6.5380   -1.1230    3.3070 hc        1 MOL      0.088183
     33 H13        -5.2100   -1.3930    2.1780 hc        1 MOL      0.088183
     34 H14        -6.3400   -3.7780    2.0140 hc        1 MOL      0.133342
     35 H15        -7.2120   -3.2860    3.4790 hc        1 MOL      0.133342
     36 H16        -5.2480   -2.9180    4.7690 hx        1 MOL      0.083391
     37 H17        -4.2820   -3.2900    3.3450 hx        1 MOL      0.083391
     38 H18        -6.1400   -5.2000    4.6810 hn        1 MOL      0.342079
     39 H19        -5.1140   -5.4360    3.4340 hn        1 MOL      0.342079
     40 H20        -4.4700   -5.1580    4.9390 hn        1 MOL      0.342079
     41 N4         -7.9230   -0.5380   -1.7220 n         1 MOL     -0.237291
     42 C13        -8.9440   -0.6600   -2.7780 c3        1 MOL      0.041284
     43 C14        -8.9950   -2.0460   -3.4460 c         1 MOL      0.499474
     44 O6         -8.5580   -2.1700   -4.5870 o         1 MOL     -0.508388
     45 C15        -8.7870    0.5530   -3.7690 c3        1 MOL     -0.124621
     46 C16        -8.7870    1.8890   -3.0690 c         1 MOL      0.569037
     47 O7         -9.8610    2.3570   -2.6490 o         1 MOL     -0.722527
     48 O8         -7.7540    2.5580   -2.9420 o         1 MOL     -0.722527
     49 H21        -6.9950   -0.9110   -1.8750 hn        1 MOL      0.218127
     50 H22        -9.9260   -0.5910   -2.3050 h1        1 MOL      0.102161
     51 H23        -9.6350    0.4650   -4.4600 hc        1 MOL      0.065194
     52 H24        -7.8700    0.4470   -4.3360 hc        1 MOL      0.065194
     53 N5         -9.6720   -3.0410   -2.9050 n         1 MOL     -0.499181
     54 C17        -9.9170   -3.2710   -1.4540 c3        1 MOL     -0.101763
     55 C18        -8.7430   -4.0440   -0.7330 c         1 MOL      0.509830
     56 O9         -8.8080   -4.1510    0.5080 o         1 MOL     -0.579386
     57 H25       -10.0380   -3.7290   -3.5470 hn        1 MOL      0.341662
     58 H26       -10.8700   -3.7930   -1.3030 h1        1 MOL      0.097591
     59 H27        -9.9670   -2.3250   -0.9100 h1        1 MOL      0.097591
     60 N6         -7.6300   -4.4600   -1.4710 n         1 MOL     -0.343414
     61 C19        -6.4620   -5.0100   -0.8620 c3        1 MOL      0.133288
     62 C20        -5.2580   -4.0430   -1.0160 c         1 MOL      0.408359
     63 O10        -5.2390   -3.0650   -1.8120 o         1 MOL     -0.517386
     64 C21        -6.1380   -6.4300   -1.2310 c3        1 MOL     -0.194234
     65 C22        -6.3030   -6.8150   -2.7240 c         1 MOL      0.654830
     66 O11        -6.3490   -8.0420   -2.9330 o         1 MOL     -0.669302
     67 O12        -6.4250   -5.9560   -3.6730 o         1 MOL     -0.669302
     68 H28        -7.6790   -4.3640   -2.4800 hn        1 MOL      0.250260
     69 H29        -6.7260   -5.0050    0.1990 h1        1 MOL      0.053255
     70 H30        -6.6220   -7.1000   -0.5270 hc        1 MOL      0.012737
     71 H31        -5.0810   -6.5620   -0.9930 hc        1 MOL      0.012737
     72 N7         -4.2920   -4.0780   -0.1550 n         1 MOL      0.033699
     73 C23        -3.0420   -3.2360   -0.1540 c3        1 MOL     -0.564267
     74 C24        -1.9750   -3.6140    0.8830 c         1 MOL      0.702314
     75 O13        -1.7760   -4.8090    1.1690 o         1 MOL     -0.591132
     76 H32        -4.3710   -4.8320    0.5130 hn        1 MOL      0.098586
     77 H33        -3.2880   -2.2060    0.0900 h1        1 MOL      0.207470
     78 H34        -2.5210   -3.3540   -1.1060 h1        1 MOL      0.207470
     79 N8         -1.1750   -2.6780    1.3500 n         1 MOL     -0.369628
     80 C25         0.0180   -2.7500    2.2490 c3        1 MOL     -0.063913
     81 C26         0.8510   -1.5160    1.9650 c         1 MOL      0.422227
     82 O14         0.3310   -0.6250    1.3300 o         1 MOL     -0.472022
     83 C27        -0.5340   -2.6400    3.7210 c3        1 MOL      0.202174
     84 C28        -1.2720   -1.3670    4.1000 c3        1 MOL     -0.314985
     85 O15        -1.4810   -3.6540    3.9730 oh        1 MOL     -0.575070
     86 H35        -1.3420   -1.7710    0.9530 hn        1 MOL      0.263607
     87 H36         0.7260   -3.5520    2.0550 h1        1 MOL      0.087460
     88 H37         0.2650   -2.8060    4.4360 h1        1 MOL      0.046565
     89 H38        -1.0320   -4.4930    3.8170 ho        1 MOL      0.370956
     90 H39        -0.6400   -0.4750    4.1070 hc        1 MOL      0.105447
     91 H40        -2.0260   -1.1690    3.3510 hc        1 MOL      0.105447
     92 H41        -1.7430   -1.5400    5.0700 hc        1 MOL      0.105447
     93 N9          2.0190   -1.4460    2.6100 n         1 MOL     -0.183917
     94 C29         2.8700   -0.2250    2.8340 c3        1 MOL     -0.113206
     95 C30         4.0060   -0.1370    1.7490 c         1 MOL      0.567702
     96 O16         4.4250    0.9900    1.4980 o         1 MOL     -0.531364
     97 C31         3.3560   -0.1700    4.2780 c3        1 MOL      0.304319
     98 C32         2.1250   -0.1660    5.2660 c3        1 MOL     -0.072119
     99 C33         4.2270    1.0260    4.6980 c3        1 MOL     -0.389046
    100 C34         2.4770   -0.6480    6.7500 c3        1 MOL     -0.261185
    101 H42         2.2510   -2.2040    3.2360 hn        1 MOL      0.170430
    102 H43         2.2210    0.6420    2.7110 h1        1 MOL      0.101346
    103 H44         3.9670   -1.0450    4.4760 hc        1 MOL     -0.039282
    104 H45         1.3430   -0.8220    4.9100 hc        1 MOL      0.029474
    105 H46         1.7920    0.8740    5.2160 hc        1 MOL      0.029474
    106 H47         4.5910    0.9390    5.7170 hc        1 MOL      0.109012
    107 H48         5.0180    1.2680    3.9870 hc        1 MOL      0.109012
    108 H49         3.5450    1.8730    4.6530 hc        1 MOL      0.109012
    109 H50         2.4600   -1.7420    6.8210 hc        1 MOL      0.073723
    110 H51         3.3930   -0.1960    7.1230 hc        1 MOL      0.073723
    111 H52         1.6830   -0.3340    7.4290 hc        1 MOL      0.073723
    112 N10         4.4080   -1.2090    1.0740 n         1 MOL     -0.547997
    113 C35         5.3850   -1.3130   -0.0530 c3        1 MOL      0.186522
    114 C36         6.5910   -2.2390    0.2860 c         1 MOL      0.595076
    115 O17         6.4640   -3.0890    1.2230 o         1 MOL     -0.517507
    116 C37         4.6780   -1.7520   -1.3930 c3        1 MOL      0.280349
    117 C38         4.0190   -0.5700   -2.0370 c3        1 MOL     -0.386284
    118 O18         5.5820   -2.2810   -2.2980 oh        1 MOL     -0.639458
    119 H53         3.8930   -2.0190    1.3960 hn        1 MOL      0.221196
    120 H54         5.8920   -0.3670   -0.2490 h1        1 MOL      0.066486
    121 H55         3.9130   -2.4950   -1.1810 h1        1 MOL      0.028388
    122 H56         5.0690   -2.6180   -3.0400 ho        1 MOL      0.435759
    123 H57         4.8030    0.1080   -2.3770 hc        1 MOL      0.110581
    124 H58         3.4140   -0.9130   -2.8720 hc        1 MOL      0.110581
    125 H59         3.3920    0.0280   -1.3740 hc        1 MOL      0.110581
    126 N11         7.7170   -2.1530   -0.4530 n         1 MOL     -0.664560
    127 C39         8.8980   -3.0140   -0.2810 c3        1 MOL     -0.000746
    128 C40        10.2680   -2.2340   -0.2430 c         1 MOL      0.724240
    129 O19        11.1800   -2.8960    0.2390 o         1 MOL     -0.588123
    130 C41         9.0330   -4.1370   -1.2510 c3        1 MOL      0.300530
    131 C42         9.2740   -3.6860   -2.6490 c3        1 MOL     -0.211030
    132 O20         7.8510   -4.9850   -1.2380 oh        1 MOL     -0.555029
    133 H60         7.6590   -1.7220   -1.3670 hn        1 MOL      0.368658
    134 H61         8.9190   -3.4940    0.7000 h1        1 MOL      0.082490
    135 H62         9.9350   -4.7140   -1.0410 h1        1 MOL     -0.004603
    136 H63         7.9630   -5.4960   -0.4360 ho        1 MOL      0.370318
    137 H64         8.2960   -3.3050   -2.9510 hc        1 MOL      0.057188
    138 H65        10.0570   -2.9250   -2.7370 hc        1 MOL      0.057188
    139 H66         9.5150   -4.5550   -3.2610 hc        1 MOL      0.057188
    140 N12        10.3440   -0.9650   -0.8000 n         1 MOL     -0.605561
    141 C43        11.6370   -0.1450   -0.9150 c3        1 MOL     -0.037454
    142 C44        11.1950    1.1960   -1.5080 c         1 MOL      0.631544
    143 O21        10.5010    1.2650   -2.5080 o         1 MOL     -0.507594
    144 C45        12.7240   -0.7150   -1.8650 c3        1 MOL     -0.225119
    145 C46        14.1030   -0.0130   -1.8350 c3        1 MOL      0.126118
    146 C47        15.1610   -0.6270   -2.7760 c3        1 MOL      0.016749
    147 C48        15.2960   -2.1350   -2.4670 c3        1 MOL     -0.069697
    148 N13        15.7880   -2.9200   -3.5830 n4        1 MOL     -0.142138
    149 H67         9.5230   -0.6600   -1.2880 hn        1 MOL      0.304610
    150 H68        12.0250   -0.0350    0.0930 h1        1 MOL      0.122808
    151 H69        12.3230   -0.7550   -2.8820 hc        1 MOL      0.083554
    152 H70        12.7970   -1.7810   -1.6180 hc        1 MOL      0.083554
    153 H71        14.4360    0.0380   -0.7960 hc        1 MOL     -0.011919
    154 H72        14.0140    1.0420   -2.1190 hc        1 MOL     -0.011919
    155 H73        16.1020   -0.0860   -2.8010 hc        1 MOL      0.029208
    156 H74        14.7820   -0.4610   -3.7800 hc        1 MOL      0.029208
    157 H75        14.3250   -2.5020   -2.1500 hx        1 MOL      0.095790
    158 H76        15.9920   -2.1710   -1.6330 hx        1 MOL      0.095790
    159 H77        16.2020   -3.8350   -3.4900 hn        1 MOL      0.229023
    160 H78        15.0570   -2.8690   -4.2810 hn        1 MOL      0.229023
    161 H79        16.6060   -2.4580   -3.9410 hn        1 MOL      0.229023
    162 N14        11.7160    2.3170   -0.9120 n         1 MOL     -0.571066
    163 C49        11.0620    3.6310   -1.1300 c3        1 MOL      0.112304
    164 C50         9.6270    3.5160   -0.6580 c         1 MOL      0.481372
    165 O22         8.7840    3.8160   -1.4390 o         1 MOL     -0.532987
    166 C51        11.9410    4.6170   -0.3080 c3        1 MOL      0.173057
    167 C52        13.3310    5.0050   -0.9170 c3        1 MOL     -0.163433
    168 C53        14.0910    6.0280   -0.1140 c         1 MOL      0.622305
    169 O23        13.6240    7.1920    0.0060 o         1 MOL     -0.640171
    170 O24        15.0770    5.5890    0.5800 o         1 MOL     -0.640171
    171 H80        12.3910    2.2140   -0.1600 hn        1 MOL      0.320055
    172 H81        11.1690    3.9630   -2.1700 h1        1 MOL      0.077827
    173 H82        12.1260    4.2120    0.6860 hc        1 MOL     -0.013850
    174 H83        11.3850    5.5490   -0.2200 hc        1 MOL     -0.013850
    175 H84        13.1300    5.3530   -1.9270 hc        1 MOL      0.002010
    176 H85        13.9990    4.1370   -0.9180 hc        1 MOL      0.002010
    177 N15         9.2310    3.1280    0.5630 n         1 MOL     -0.392408
    178 C54         9.9730    2.8920    1.7750 c3        1 MOL     -0.019289
    179 H86        10.1110    3.8340    2.3060 h1        1 MOL      0.039189
    180 H87         9.4230    2.1960    2.4090 h1        1 MOL      0.039189
    181 H88        10.9470    2.4680    1.5290 h1        1 MOL      0.039189
    182 H89         8.2650    2.8710    0.7040 hn        1 MOL      0.296416
    183 Ca1        -8.6260    4.8000   -1.7700 Ca        1 MOL      1.716585
    184 O25        -7.8460    7.9820   -1.6460 oh        1 MOL     -0.794495
    185 H90        -8.3550    8.4130   -0.9570 ho        1 MOL      0.401974
    186 H91        -6.9540    7.9260   -1.2800 ho        1 MOL      0.401974
    187 O26        -9.3380    3.0310    0.1460 oh        1 MOL     -0.794495
    188 H92        -9.5930    2.1220    0.0100 ho        1 MOL      0.401974
    189 H93        -9.6610    3.2470    1.0180 ho        1 MOL      0.401974
    190 O27        -9.3290    6.0590    0.6060 oh        1 MOL     -0.794495
    191 H94        -9.4760    6.0150    1.5480 ho        1 MOL      0.401974
    192 H95        -9.2230    6.9850    0.4120 ho        1 MOL      0.401974
    193 O28        -6.3820    5.3670   -2.8840 oh        1 MOL     -0.794495
    194 H96        -5.5470    4.9130   -2.7550 ho        1 MOL      0.401974
    195 H97        -6.1380    6.2700   -3.0580 ho        1 MOL      0.401974
    196 O29       -11.1680    5.5370   -1.9170 oh        1 MOL     -0.794495
    197 H98       -11.7900    4.8450   -1.6800 ho        1 MOL      0.401974
    198 H99       -11.7190    6.3010   -2.1040 ho        1 MOL      0.401974
    199 O30        -8.8450    6.2430   -4.0000 oh        1 MOL     -0.794495
    200 H100       -8.1180    6.1850   -4.6280 ho        1 MOL      0.401974
    201 H101       -9.4790    6.8150   -4.4360 ho        1 MOL      0.401974
@<TRIPOS>BOND
     1    1    2 1   
     2    1    4 1   
     3    1    5 1   
     4    1    6 1   
     5    2    3 2   
     6    2    7 1   
     7    7    8 1   
     8    7   15 1   
     9    8    9 1   
    10    8   11 1   
    11    8   16 1   
    12    9   10 2   
    13    9   19 1   
    14   11   12 1   
    15   11   17 1   
    16   11   18 1   
    17   12   13 1   
    18   12   14 1   
    19   19   20 1   
    20   19   28 1   
    21   20   21 1   
    22   20   23 1   
    23   20   29 1   
    24   21   22 2   
    25   21   41 1   
    26   23   24 1   
    27   23   30 1   
    28   23   31 1   
    29   24   25 1   
    30   24   32 1   
    31   24   33 1   
    32   25   26 1   
    33   25   34 1   
    34   25   35 1   
    35   26   27 1   
    36   26   36 1   
    37   26   37 1   
    38   27   38 1   
    39   27   39 1   
    40   27   40 1   
    41   41   42 1   
    42   41   49 1   
    43   42   43 1   
    44   42   45 1   
    45   42   50 1   
    46   43   44 2   
    47   43   53 1   
    48   45   46 1   
    49   45   51 1   
    50   45   52 1   
    51   46   47 1   
    52   46   48 1   
    53   53   54 1   
    54   53   57 1   
    55   54   55 1   
    56   54   58 1   
    57   54   59 1   
    58   55   56 2   
    59   55   60 1   
    60   60   61 1   
    61   60   68 1   
    62   61   62 1   
    63   61   64 1   
    64   61   69 1   
    65   62   63 2   
    66   62   72 1   
    67   64   65 1   
    68   64   70 1   
    69   64   71 1   
    70   65   66 1   
    71   65   67 1   
    72   72   73 1   
    73   72   76 1   
    74   73   74 1   
    75   73   77 1   
    76   73   78 1   
    77   74   75 2   
    78   74   79 1   
    79   79   80 1   
    80   79   86 1   
    81   80   81 1   
    82   80   83 1   
    83   80   87 1   
    84   81   82 2   
    85   81   93 1   
    86   83   84 1   
    87   83   85 1   
    88   83   88 1   
    89   84   90 1   
    90   84   91 1   
    91   84   92 1   
    92   85   89 1   
    93   93   94 1   
    94   93  101 1   
    95   94   95 1   
    96   94   97 1   
    97   94  102 1   
    98   95   96 2   
    99   95  112 1   
   100   97   98 1   
   101   97   99 1   
   102   97  103 1   
   103   98  100 1   
   104   98  104 1   
   105   98  105 1   
   106   99  106 1   
   107   99  107 1   
   108   99  108 1   
   109  100  109 1   
   110  100  110 1   
   111  100  111 1   
   112  112  113 1   
   113  112  119 1   
   114  113  114 1   
   115  113  116 1   
   116  113  120 1   
   117  114  115 2   
   118  114  126 1   
   119  116  117 1   
   120  116  118 1   
   121  116  121 1   
   122  117  123 1   
   123  117  124 1   
   124  117  125 1   
   125  118  122 1   
   126  126  127 1   
   127  126  133 1   
   128  127  128 1   
   129  127  130 1   
   130  127  134 1   
   131  128  129 2   
   132  128  140 1   
   133  130  131 1   
   134  130  132 1   
   135  130  135 1   
   136  131  137 1   
   137  131  138 1   
   138  131  139 1   
   139  132  136 1   
   140  140  141 1   
   141  140  149 1   
   142  141  142 1   
   143  141  144 1   
   144  141  150 1   
   145  142  143 2   
   146  142  162 1   
   147  144  145 1   
   148  144  151 1   
   149  144  152 1   
   150  145  146 1   
   151  145  153 1   
   152  145  154 1   
   153  146  147 1   
   154  146  155 1   
   155  146  156 1   
   156  147  148 1   
   157  147  157 1   
   158  147  158 1   
   159  148  159 1   
   160  148  160 1   
   161  148  161 1   
   162  162  163 1   
   163  162  171 1   
   164  163  164 1   
   165  163  166 1   
   166  163  172 1   
   167  164  165 2   
   168  164  177 1   
   169  166  167 1   
   170  166  173 1   
   171  166  174 1   
   172  167  168 1   
   173  167  175 1   
   174  167  176 1   
   175  168  169 1   
   176  168  170 1   
   177  177  178 1   
   178  177  182 1   
   179  178  179 1   
   180  178  180 1   
   181  178  181 1   
   182  184  185 1   
   183  184  186 1   
   184  187  188 1   
   185  187  189 1   
   186  190  191 1   
   187  190  192 1   
   188  193  194 1   
   189  193  195 1   
   190  196  197 1   
   191  196  198 1   
   192  199  200 1   
   193  199  201 1   
@<TRIPOS>SUBSTRUCTURE
     1 MOL         1 TEMP              0 ****  ****    0 ROOT
