@<TRIPOS>MOLECULE
MOL
  178   175     1     0     0
SMALL
resp


@<TRIPOS>ATOM
      1 C1          2.8800   -2.0740    3.7200 c3        1 MOL     -0.490943
      2 C2          4.1040   -1.3520    3.1570 c         1 MOL      0.637711
      3 O1          3.9380   -0.5370    2.3100 o         1 MOL     -0.573554
      4 H1          3.2030   -2.9450    4.2910 hc        1 MOL      0.126048
      5 H2          2.3260   -1.3990    4.3730 hc        1 MOL      0.126048
      6 H3          2.2370   -2.3960    2.9010 hc        1 MOL      0.126048
      7 N1          5.3140   -1.7100    3.6310 n         1 MOL     -0.347232
      8 C3          6.5860   -1.1090    3.1920 c3        1 MOL     -0.097221
      9 C4          7.2310   -1.8830    1.9460 c         1 MOL      0.679828
     10 O2          8.0020   -1.2400    1.1710 o         1 MOL     -0.585354
     11 C5          7.4840   -0.9760    4.4480 c3        1 MOL     -0.218659
     12 C6          7.6410   -2.1210    5.5160 c         1 MOL      0.727071
     13 O3          8.2730   -1.8350    6.5470 o         1 MOL     -0.717923
     14 O4          7.1930   -3.2350    5.2080 o         1 MOL     -0.717923
     15 H4          5.3660   -2.4270    4.3410 hn        1 MOL      0.227621
     16 H5          6.3000   -0.1260    2.8370 h1        1 MOL      0.104628
     17 H6          7.2050   -0.1060    5.0360 hc        1 MOL      0.045230
     18 H7          8.4770   -0.7620    4.0340 hc        1 MOL      0.045230
     19 N2          6.8510   -3.1360    1.7030 n         1 MOL     -0.547157
     20 C7          7.2960   -3.9860    0.5690 c3        1 MOL      0.391694
     21 C8          6.8810   -3.4070   -0.8040 c         1 MOL      0.317175
     22 O5          7.7470   -3.1990   -1.6480 o         1 MOL     -0.482403
     23 C9          8.7850   -4.3450    0.8140 c3        1 MOL     -0.395245
     24 H8          6.1170   -3.5740    2.2300 hn        1 MOL      0.268322
     25 H9          6.6730   -4.8900    0.6270 h1        1 MOL      0.004869
     26 H10         9.1150   -5.1390    0.1480 hc        1 MOL      0.104636
     27 H11         9.3640   -3.4280    0.7190 hc        1 MOL      0.104636
     28 H12         8.7730   -4.7990    1.8030 hc        1 MOL      0.104636
     29 N3          5.5660   -3.1650   -0.9620 n         1 MOL     -0.367703
     30 C10         4.9610   -2.3710   -1.9920 c3        1 MOL      0.339134
     31 C11         5.6420   -1.0270   -2.3230 c         1 MOL      0.301593
     32 O6          5.7640   -0.6180   -3.5200 o         1 MOL     -0.521222
     33 C12         4.4150   -3.1910   -3.1840 c3        1 MOL     -0.237107
     34 C13         3.4870   -4.3850   -2.8510 c         1 MOL      0.629652
     35 O7          3.9570   -5.5450   -2.9130 o         1 MOL     -0.682116
     36 O8          2.2940   -4.2130   -2.5570 o         1 MOL     -0.682116
     37 H13         4.9780   -3.4170   -0.1760 hn        1 MOL      0.257238
     38 H14         4.0640   -2.0090   -1.4830 h1        1 MOL     -0.026484
     39 H15         5.3270   -3.4470   -3.7320 hc        1 MOL      0.033832
     40 H16         3.8660   -2.4910   -3.8090 hc        1 MOL      0.033832
     41 N4          6.0030   -0.2630   -1.2970 n         1 MOL      0.044922
     42 C14         6.3540    1.1330   -1.3650 c3        1 MOL     -0.267502
     43 C15         5.3280    2.0590   -2.0060 c         1 MOL      0.679049
     44 O9          5.7750    3.0930   -2.4790 o         1 MOL     -0.598543
     45 H17         5.9280   -0.6650   -0.3760 hn        1 MOL      0.045526
     46 H18         7.2270    1.1860   -1.9980 h1        1 MOL      0.118882
     47 H19         6.5020    1.3740   -0.3140 h1        1 MOL      0.118882
     48 N5          4.0490    1.8470   -1.8430 n         1 MOL     -0.493553
     49 C16         3.0510    2.7240   -2.4770 c3        1 MOL      0.151412
     50 C17         2.8180    4.0530   -1.8110 c         1 MOL      0.616616
     51 O10         2.8010    4.1050   -0.5560 o         1 MOL     -0.543071
     52 C18         1.7550    1.8770   -2.7520 c3        1 MOL     -0.378556
     53 C19         0.9040    2.4010   -3.8660 c         1 MOL      0.555768
     54 N6         -0.1160    3.0680   -3.5830 n         1 MOL     -0.669131
     55 O11         1.1730    2.2860   -5.1160 o         1 MOL     -0.617104
     56 H20         3.7560    1.0450   -1.3120 hn        1 MOL      0.282578
     57 H21         3.4640    3.0190   -3.4490 h1        1 MOL      0.038579
     58 H22         1.2070    1.7580   -1.8210 hc        1 MOL      0.147689
     59 H23         2.1350    0.9230   -3.1330 hc        1 MOL      0.147689
     60 H24        -0.3500    3.1300   -2.6050 hn        1 MOL      0.355940
     61 H25        -0.7570    3.2810   -4.3310 hn        1 MOL      0.355940
     62 N7          2.7480    5.1490   -2.5700 n         1 MOL     -0.488842
     63 C20         2.5960    6.4620   -1.9150 c3        1 MOL     -0.096878
     64 C21         1.1340    6.8770   -1.5280 c         1 MOL      0.417451
     65 O12         0.1710    6.6290   -2.3480 o         1 MOL     -0.484876
     66 H26         2.5840    5.0920   -3.5660 hn        1 MOL      0.350355
     67 H27         3.0860    7.1650   -2.5920 h1        1 MOL      0.099855
     68 H28         3.1860    6.4490   -1.0020 h1        1 MOL      0.099855
     69 N8          0.9880    7.4390   -0.3450 n         1 MOL     -0.294089
     70 C22        -0.2230    7.9650    0.2010 c3        1 MOL     -0.291688
     71 C23        -1.2950    6.9540    0.7040 c         1 MOL      0.468889
     72 O13        -2.4360    7.3740    0.8190 o         1 MOL     -0.549574
     73 C24         0.1050    9.0000    1.3620 c3        1 MOL      0.483558
     74 C25         0.7830    8.4570    2.5740 c3        1 MOL     -0.445312
     75 O14         0.9010    9.9920    0.7340 oh        1 MOL     -0.611562
     76 H29         1.8070    7.5980    0.2260 hn        1 MOL      0.232075
     77 H30        -0.7280    8.5480   -0.5770 h1        1 MOL      0.172795
     78 H31        -0.8720    9.3850    1.6630 h1        1 MOL      0.038074
     79 H32         1.7200    9.5150    0.5590 ho        1 MOL      0.360637
     80 H33         1.7150    7.9570    2.2790 hc        1 MOL      0.107922
     81 H34         0.7700    9.1870    3.3820 hc        1 MOL      0.107922
     82 H35         0.2300    7.6090    2.9730 hc        1 MOL      0.107922
     83 N9         -0.9370    5.7030    0.8580 n         1 MOL     -0.121792
     84 C26        -1.7320    4.5200    1.2340 c3        1 MOL     -0.050530
     85 C27        -1.7090    3.3530    0.2150 c         1 MOL      0.439885
     86 O15        -1.0720    3.4140   -0.8780 o         1 MOL     -0.490927
     87 C28        -1.4340    4.0000    2.6850 c3        1 MOL      0.105617
     88 C29         0.0170    3.6900    3.0660 c3        1 MOL     -0.106164
     89 C30        -1.9660    5.0280    3.7220 c3        1 MOL     -0.440742
     90 C31         0.7360    2.6850    2.1350 c3        1 MOL     -0.114730
     91 H36         0.0080    5.4480    0.6280 hn        1 MOL      0.208133
     92 H37        -2.7720    4.8520    1.2760 h1        1 MOL      0.096839
     93 H38        -1.9030    3.0270    2.8350 hc        1 MOL      0.020947
     94 H39        -0.0120    3.2990    4.0790 hc        1 MOL      0.043708
     95 H40         0.5780    4.6280    3.0200 hc        1 MOL      0.043708
     96 H41        -1.2280    5.8320    3.7240 hc        1 MOL      0.110943
     97 H42        -2.9750    5.3680    3.5070 hc        1 MOL      0.110943
     98 H43        -1.8290    4.6900    4.7510 hc        1 MOL      0.110943
     99 H44         1.7480    2.5390    2.5140 hc        1 MOL      0.054985
    100 H45         0.3200    1.6880    2.1530 hc        1 MOL      0.054985
    101 H46         0.7590    3.1070    1.1230 hc        1 MOL      0.054985
    102 N10        -2.4510    2.2320    0.3740 n         1 MOL     -0.409005
    103 C32        -2.2950    1.0250   -0.4670 c3        1 MOL     -0.060720
    104 C33        -3.6330    0.2330   -0.3040 c         1 MOL      0.484114
    105 O16        -3.5440   -0.9950   -0.3230 o         1 MOL     -0.467286
    106 C34        -1.0540    0.2620   -0.0410 c3        1 MOL     -0.039954
    107 C35        -0.5950   -0.8310   -1.0780 c         1 MOL      0.722239
    108 O17        -1.2200   -1.0190   -2.1880 o         1 MOL     -0.755702
    109 O18         0.3820   -1.5790   -0.9150 o         1 MOL     -0.755702
    110 H47        -3.1740    2.1070    1.0750 hn        1 MOL      0.258272
    111 H48        -2.2340    1.3730   -1.4920 h1        1 MOL      0.094863
    112 H49        -1.3370   -0.2610    0.8700 hc        1 MOL      0.048571
    113 H50        -0.1890    0.8930    0.1340 hc        1 MOL      0.048571
    114 N11        -4.7640    0.8290   -0.0330 n         1 MOL     -0.366205
    115 C36        -6.0200    0.0990   -0.2930 c3        1 MOL      0.155450
    116 C37        -6.3190   -1.0720    0.6540 c         1 MOL      0.175020
    117 O19        -6.1720   -0.8060    1.8720 o         1 MOL     -0.438440
    118 C38        -7.1340    1.1610   -0.2470 c3        1 MOL     -0.256772
    119 C39        -8.5660    0.6540   -0.4690 ca        1 MOL      0.018411
    120 C40        -8.9310    0.1410   -1.6650 ca        1 MOL     -0.090488
    121 C41        -9.5050    0.4670    0.6140 ca        1 MOL     -0.090488
    122 C42       -10.2280   -0.4070   -1.8540 ca        1 MOL     -0.178793
    123 C43       -10.8230   -0.0710    0.4140 ca        1 MOL     -0.178793
    124 C44       -11.0980   -0.6250   -0.8130 ca        1 MOL     -0.025977
    125 H51        -4.7930    1.8110    0.2140 hn        1 MOL      0.228512
    126 H52        -5.9270   -0.1990   -1.3380 h1        1 MOL      0.074030
    127 H53        -7.0120    1.8850   -1.0500 hc        1 MOL      0.112856
    128 H54        -7.0270    1.6950    0.7010 hc        1 MOL      0.112856
    129 H55        -8.2780    0.2460   -2.5120 ha        1 MOL      0.110562
    130 H56        -9.1640    0.8840    1.5500 ha        1 MOL      0.110562
    131 H57       -10.5390   -0.7290   -2.8420 ha        1 MOL      0.118776
    132 H58       -11.5220   -0.2220    1.2310 ha        1 MOL      0.118776
    133 H59       -12.0070   -1.1810   -0.9550 ha        1 MOL      0.091195
    134 N12        -6.6770   -2.3270    0.2260 n         1 MOL     -0.016739
    135 C45        -7.1620   -3.4220    1.1540 c3        1 MOL      0.051721
    136 C46        -6.0760   -3.7920    2.2420 c         1 MOL      0.256089
    137 O20        -6.4740   -4.3710    3.2150 o         1 MOL     -0.488463
    138 C47        -7.3720   -4.6040    0.1780 c3        1 MOL     -0.058363
    139 C48        -7.7560   -3.8990   -1.1560 c3        1 MOL     -0.009247
    140 C49        -6.7500   -2.7260   -1.2010 c3        1 MOL      0.104342
    141 H60        -8.1110   -3.1800    1.6220 h1        1 MOL      0.075280
    142 H61        -6.4180   -5.0730   -0.0650 hc        1 MOL      0.040583
    143 H62        -8.1370   -5.3470    0.3760 hc        1 MOL      0.040583
    144 H63        -7.6620   -4.4880   -2.0730 hc        1 MOL      0.001086
    145 H64        -8.7660   -3.5030   -1.1120 hc        1 MOL      0.001086
    146 H65        -5.7890   -3.0060   -1.6160 h1        1 MOL     -0.000223
    147 H66        -7.1930   -1.8990   -1.7590 h1        1 MOL     -0.000223
    148 N13        -4.7770   -3.4440    1.9650 n         1 MOL      0.000634
    149 C50        -3.6440   -3.7870    2.8400 c3        1 MOL     -0.171402
    150 C51        -3.4260   -2.7200    3.9240 c         1 MOL      0.381640
    151 O21        -2.6820   -2.8950    4.9110 o         1 MOL     -0.546030
    152 C52        -2.4110   -4.0860    1.9750 c3        1 MOL     -0.160241
    153 C53        -2.6520   -4.8570    0.6160 c3        1 MOL      0.147785
    154 C54        -1.7230   -4.4110   -0.5460 c         1 MOL      0.609790
    155 O22        -0.4940   -4.5200   -0.4260 o         1 MOL     -0.745733
    156 O23        -2.2200   -4.1090   -1.6570 o         1 MOL     -0.745733
    157 H67        -4.6290   -2.9530    1.0990 hn        1 MOL      0.165316
    158 H68        -3.7750   -4.7300    3.3670 h1        1 MOL      0.128130
    159 H69        -1.8070   -4.7750    2.5500 hc        1 MOL      0.094580
    160 H70        -1.8780   -3.1550    1.8090 hc        1 MOL      0.094580
    161 H71        -3.7100   -4.8500    0.3660 hc        1 MOL     -0.045846
    162 H72        -2.4870   -5.9310    0.7150 hc        1 MOL     -0.045846
    163 N14        -3.9430   -1.5250    3.7680 n         1 MOL     -0.038372
    164 C55        -3.9420   -0.4470    4.7200 c3        1 MOL     -0.198363
    165 H73        -4.9210    0.0320    4.7280 h1        1 MOL      0.084917
    166 H74        -3.7210   -0.8390    5.7130 h1        1 MOL      0.084917
    167 H75        -3.1830    0.2840    4.4410 h1        1 MOL      0.084917
    168 H76        -4.5780   -1.4740    2.9840 hn        1 MOL      0.108509
    169 Ca1        -0.0250   -3.3460   -2.7150 Ca        1 MOL      1.683700
    170 O24        -1.3560   -3.2300   -5.1250 oh        1 MOL     -0.800776
    171 H77        -1.4100   -2.3440   -5.4940 ho        1 MOL      0.401512
    172 H78        -1.5700   -3.8090   -5.8600 ho        1 MOL      0.401512
    173 O25         1.1420   -1.6050   -4.6140 oh        1 MOL     -0.800776
    174 H79         0.7050   -1.6720   -5.4630 ho        1 MOL      0.401512
    175 H80         1.8950   -1.0450   -4.7730 ho        1 MOL      0.401512
    176 O26        -0.0440   -5.6620   -4.0030 oh        1 MOL     -0.800776
    177 H81         0.6330   -6.2420   -3.6310 ho        1 MOL      0.401512
    178 H82        -0.8560   -6.1490   -3.9030 ho        1 MOL      0.401512
@<TRIPOS>BOND
     1    1    2 1   
     2    1    4 1   
     3    1    5 1   
     4    1    6 1   
     5    2    3 2   
     6    2    7 1   
     7    7    8 1   
     8    7   15 1   
     9    8    9 1   
    10    8   11 1   
    11    8   16 1   
    12    9   10 2   
    13    9   19 1   
    14   11   12 1   
    15   11   17 1   
    16   11   18 1   
    17   12   13 1   
    18   12   14 1   
    19   19   20 1   
    20   19   24 1   
    21   20   21 1   
    22   20   23 1   
    23   20   25 1   
    24   21   22 2   
    25   21   29 1   
    26   23   26 1   
    27   23   27 1   
    28   23   28 1   
    29   29   30 1   
    30   29   37 1   
    31   30   31 1   
    32   30   33 1   
    33   30   38 1   
    34   31   32 2   
    35   31   41 1   
    36   33   34 1   
    37   33   39 1   
    38   33   40 1   
    39   34   35 1   
    40   34   36 1   
    41   41   42 1   
    42   41   45 1   
    43   42   43 1   
    44   42   46 1   
    45   42   47 1   
    46   43   44 2   
    47   43   48 1   
    48   48   49 1   
    49   48   56 1   
    50   49   50 1   
    51   49   52 1   
    52   49   57 1   
    53   50   51 2   
    54   50   62 1   
    55   52   53 1   
    56   52   58 1   
    57   52   59 1   
    58   53   54 1   
    59   53   55 2   
    60   54   60 1   
    61   54   61 1   
    62   62   63 1   
    63   62   66 1   
    64   63   64 1   
    65   63   67 1   
    66   63   68 1   
    67   64   65 2   
    68   64   69 1   
    69   69   70 1   
    70   69   76 1   
    71   70   71 1   
    72   70   73 1   
    73   70   77 1   
    74   71   72 2   
    75   71   83 1   
    76   73   74 1   
    77   73   75 1   
    78   73   78 1   
    79   74   80 1   
    80   74   81 1   
    81   74   82 1   
    82   75   79 1   
    83   83   84 1   
    84   83   91 1   
    85   84   85 1   
    86   84   87 1   
    87   84   92 1   
    88   85   86 2   
    89   85  102 1   
    90   87   88 1   
    91   87   89 1   
    92   87   93 1   
    93   88   90 1   
    94   88   94 1   
    95   88   95 1   
    96   89   96 1   
    97   89   97 1   
    98   89   98 1   
    99   90   99 1   
   100   90  100 1   
   101   90  101 1   
   102  102  103 1   
   103  102  110 1   
   104  103  104 1   
   105  103  106 1   
   106  103  111 1   
   107  104  105 2   
   108  104  114 1   
   109  106  107 1   
   110  106  112 1   
   111  106  113 1   
   112  107  108 1   
   113  107  109 1   
   114  114  115 1   
   115  114  125 1   
   116  115  116 1   
   117  115  118 1   
   118  115  126 1   
   119  116  117 2   
   120  116  134 1   
   121  118  119 1   
   122  118  127 1   
   123  118  128 1   
   124  119  120 ar  
   125  119  121 ar  
   126  120  122 ar  
   127  120  129 1   
   128  121  123 ar  
   129  121  130 1   
   130  122  124 ar  
   131  122  131 1   
   132  123  124 ar  
   133  123  132 1   
   134  124  133 1   
   135  134  135 1   
   136  134  140 1   
   137  135  136 1   
   138  135  138 1   
   139  135  141 1   
   140  136  137 2   
   141  136  148 1   
   142  138  139 1   
   143  138  142 1   
   144  138  143 1   
   145  139  140 1   
   146  139  144 1   
   147  139  145 1   
   148  140  146 1   
   149  140  147 1   
   150  148  149 1   
   151  148  157 1   
   152  149  150 1   
   153  149  152 1   
   154  149  158 1   
   155  150  151 2   
   156  150  163 1   
   157  152  153 1   
   158  152  159 1   
   159  152  160 1   
   160  153  154 1   
   161  153  161 1   
   162  153  162 1   
   163  154  155 1   
   164  154  156 1   
   165  163  164 1   
   166  163  168 1   
   167  164  165 1   
   168  164  166 1   
   169  164  167 1   
   170  170  171 1   
   171  170  172 1   
   172  173  174 1   
   173  173  175 1   
   174  176  177 1   
   175  176  178 1   
@<TRIPOS>SUBSTRUCTURE
     1 MOL         1 TEMP              0 ****  ****    0 ROOT
