@<TRIPOS>MOLECULE
MOL
  192   187     1     0     0
SMALL
resp


@<TRIPOS>ATOM
      1 C1          9.8470    0.6520    0.9130 c3        1 MOL     -0.592229
      2 C2          8.5250    0.1320    0.3610 c         1 MOL      0.867855
      3 O1          7.5600    0.0550    1.1010 o         1 MOL     -0.675427
      4 H1          9.8880    1.7350    0.7950 hc        1 MOL      0.150609
      5 H2          9.9260    0.3990    1.9700 hc        1 MOL      0.150609
      6 H3         10.6730    0.1970    0.3670 hc        1 MOL      0.150609
      7 N1          8.5030   -0.3010   -0.8870 n         1 MOL     -0.885682
      8 C3          7.3040   -0.4320   -1.7510 c3        1 MOL      0.219641
      9 C4          6.7390   -1.8470   -1.7170 c         1 MOL      0.628860
     10 O2          6.4140   -2.3590   -2.7940 o         1 MOL     -0.526175
     11 C5          7.5420    0.1980   -3.0920 c3        1 MOL     -0.127092
     12 C6          8.0410    1.6530   -3.2320 c         1 MOL      0.654713
     13 O3          8.1540    2.3950   -2.2250 o         1 MOL     -0.627094
     14 O4          8.2750    2.1540   -4.4100 o         1 MOL     -0.627094
     15 H4          9.3800   -0.2580   -1.3990 hn        1 MOL      0.409300
     16 H5          6.5080    0.1270   -1.2690 h1        1 MOL      0.082394
     17 H6          6.5850    0.1360   -3.6010 hc        1 MOL      0.029044
     18 H7          8.2490   -0.3730   -3.6920 hc        1 MOL      0.029044
     19 N2          6.6850   -2.4940   -0.5410 n         1 MOL     -0.517159
     20 C7          6.0760   -3.7800   -0.3090 c3        1 MOL      0.014825
     21 C8          4.5220   -3.8490   -0.6420 c         1 MOL      0.571680
     22 O5          4.0860   -4.7110   -1.3710 o         1 MOL     -0.554626
     23 C9          6.5850   -4.3220    1.1230 c3        1 MOL     -0.077434
     24 C10         8.1200   -4.6290    1.1950 c3        1 MOL      0.087454
     25 C11         8.5270   -5.4080    2.4380 c3        1 MOL      0.169969
     26 C12        10.0690   -5.3710    2.6440 c3        1 MOL     -0.234000
     27 N3         10.4190   -5.1180    4.1240 n4        1 MOL     -0.110045
     28 H8          6.9640   -1.9410    0.2650 hn        1 MOL      0.279192
     29 H9          6.5540   -4.4500   -1.0210 h1        1 MOL      0.081445
     30 H10         6.0280   -5.2250    1.3560 hc        1 MOL      0.023687
     31 H11         6.3560   -3.5860    1.8850 hc        1 MOL      0.023687
     32 H12         8.7280   -3.7270    1.1270 hc        1 MOL     -0.009160
     33 H13         8.4150   -5.2500    0.3540 hc        1 MOL     -0.009160
     34 H14         8.0590   -6.3850    2.3310 hc        1 MOL     -0.012063
     35 H15         8.0910   -4.8900    3.2880 hc        1 MOL     -0.012063
     36 H16        10.4950   -4.5260    2.0890 hx        1 MOL      0.140800
     37 H17        10.3640   -6.3690    2.3200 hx        1 MOL      0.140800
     38 H18        11.3970   -5.1050    4.3700 hn        1 MOL      0.215099
     39 H19         9.9600   -4.2570    4.3810 hn        1 MOL      0.215099
     40 H20         9.9550   -5.8310    4.6730 hn        1 MOL      0.215099
     41 N4          3.6560   -3.0200   -0.1330 n         1 MOL     -0.434567
     42 C13         3.8230   -1.8090    0.6870 c3        1 MOL      0.061107
     43 C14         3.8550   -0.5520   -0.2930 c         1 MOL      0.103562
     44 O6          3.7370   -0.6420   -1.4850 o         1 MOL     -0.363655
     45 C15         2.6810   -1.7580    1.7550 c3        1 MOL     -0.232742
     46 C16         1.3580   -2.1300    1.1110 c         1 MOL      0.703989
     47 O7          0.8960   -1.3040    0.2870 o         1 MOL     -0.707115
     48 O8          0.7630   -3.1650    1.4620 o         1 MOL     -0.707115
     49 H21         2.7370   -3.1220   -0.5320 hn        1 MOL      0.370601
     50 H22         4.7300   -1.9180    1.2870 h1        1 MOL      0.109062
     51 H23         2.5770   -0.7560    2.1630 hc        1 MOL      0.037295
     52 H24         3.0370   -2.4170    2.5490 hc        1 MOL      0.037295
     53 N5          4.2250    0.5530    0.2940 n         1 MOL     -0.172280
     54 C17         4.2760    1.8880   -0.2490 c3        1 MOL      0.035156
     55 C18         2.9330    2.5850   -0.6440 c         1 MOL      0.521875
     56 O9          1.9590    1.9020   -0.4710 o         1 MOL     -0.505218
     57 H25         4.4920    0.5650    1.2680 hn        1 MOL      0.271311
     58 H26         4.9720    1.8520   -1.0840 h1        1 MOL      0.045896
     59 H27         4.7070    2.5870    0.4840 h1        1 MOL      0.045896
     60 N6          3.1210    3.7970   -1.3380 n         1 MOL     -0.479174
     61 C19         2.0220    4.6670   -1.8630 c3        1 MOL      0.258273
     62 C20         2.4600    6.1880   -1.7760 c         1 MOL      0.461042
     63 O10         3.5990    6.4760   -1.4230 o         1 MOL     -0.520801
     64 C21         1.6430    4.1500   -3.2660 c3        1 MOL     -0.483474
     65 C22         1.2140    2.7200   -3.2910 c         1 MOL      0.833480
     66 O11         0.1740    2.3090   -2.7970 o         1 MOL     -0.693393
     67 O12         2.0360    1.9770   -3.8520 o         1 MOL     -0.693393
     68 H28         4.0800    4.1060   -1.2960 hn        1 MOL      0.295395
     69 H29         1.1820    4.4950   -1.2030 h1        1 MOL      0.063912
     70 H30         2.4990    4.3240   -3.9180 hc        1 MOL      0.108634
     71 H31         0.8770    4.8350   -3.6300 hc        1 MOL      0.108634
     72 N7          1.5710    7.1550   -1.7710 n         1 MOL     -0.394541
     73 C23         0.0890    7.1540   -1.7950 c3        1 MOL      0.005156
     74 C24        -0.3810    6.3660   -0.5900 c         1 MOL      0.616397
     75 O13         0.3140    6.3250    0.4810 o         1 MOL     -0.520428
     76 H32         2.0170    8.0500   -1.8770 hn        1 MOL      0.298790
     77 H33        -0.2970    6.5960   -2.6470 h1        1 MOL      0.042259
     78 H34        -0.3080    8.1700   -1.8430 h1        1 MOL      0.042259
     79 N8         -1.5180    5.6390   -0.7550 n         1 MOL     -0.632668
     80 C25        -2.2060    4.9180    0.3740 c3        1 MOL     -0.018216
     81 C26        -1.4170    3.6690    0.9530 c         1 MOL      0.687572
     82 O14        -0.8870    2.8970    0.1920 o         1 MOL     -0.643764
     83 C27        -3.6290    4.5340   -0.1240 c3        1 MOL      0.484959
     84 C28        -4.5430    5.6950   -0.4250 c3        1 MOL     -0.366365
     85 O15        -4.2350    3.8080    0.8320 oh        1 MOL     -0.706610
     86 H35        -1.9730    5.6000   -1.6510 hn        1 MOL      0.334141
     87 H36        -2.2780    5.6400    1.1850 h1        1 MOL      0.068785
     88 H37        -3.4370    4.0310   -1.0720 h1        1 MOL     -0.011994
     89 H38        -4.9520    4.3430    1.1620 ho        1 MOL      0.400466
     90 H39        -4.4980    6.4080    0.4010 hc        1 MOL      0.097974
     91 H40        -4.1700    6.2750   -1.2750 hc        1 MOL      0.097974
     92 H41        -5.5690    5.3680   -0.5880 hc        1 MOL      0.097974
     93 N9         -1.3640    3.4550    2.2700 n         1 MOL     -0.627947
     94 C29        -0.7510    2.4090    3.1310 c3        1 MOL      0.007804
     95 C30        -1.3240    0.9970    2.7510 c         1 MOL      0.596267
     96 O16        -1.0210    0.4680    1.7180 o         1 MOL     -0.552535
     97 C31         0.7720    2.4120    3.0890 c3        1 MOL      0.310085
     98 C32         1.2460    3.9070    3.2840 c3        1 MOL     -0.027590
     99 C33         1.2400    1.3640    4.1430 c3        1 MOL     -0.606296
    100 C34         2.7320    4.0480    3.6510 c3        1 MOL     -0.114628
    101 H42        -1.9740    4.0900    2.7500 hn        1 MOL      0.295633
    102 H43        -1.0430    2.5910    4.1600 h1        1 MOL      0.034694
    103 H44         0.9840    2.1360    2.0480 hc        1 MOL     -0.053818
    104 H45         0.6540    4.3400    4.0810 hc        1 MOL      0.030054
    105 H46         1.0570    4.5140    2.3990 hc        1 MOL      0.030054
    106 H47         0.7150    1.5120    5.0860 hc        1 MOL      0.146190
    107 H48         1.0630    0.3240    3.8680 hc        1 MOL      0.146190
    108 H49         2.3160    1.4990    4.2840 hc        1 MOL      0.146190
    109 H50         3.0200    5.1050    3.6550 hc        1 MOL      0.029451
    110 H51         2.9420    3.6570    4.6460 hc        1 MOL      0.029451
    111 H52         3.3090    3.4800    2.9380 hc        1 MOL      0.029451
    112 N10        -2.1610    0.4420    3.6030 n         1 MOL     -0.187710
    113 C35        -2.5540   -0.9800    3.5830 c3        1 MOL     -0.127189
    114 C36        -3.9970   -1.0400    3.0720 c         1 MOL      0.578809
    115 O17        -4.5050   -2.0960    2.6830 o         1 MOL     -0.554039
    116 C37        -2.3540   -1.7020    4.8910 c3        1 MOL      0.369821
    117 C38        -3.2620   -1.1260    5.9840 c3        1 MOL     -0.207495
    118 O18        -1.0470   -1.4940    5.3580 oh        1 MOL     -0.648523
    119 H53        -2.3330    0.9590    4.4460 hn        1 MOL      0.208567
    120 H54        -1.9440   -1.5280    2.8530 h1        1 MOL      0.077230
    121 H55        -2.4810   -2.7720    4.7640 h1        1 MOL      0.033496
    122 H56        -0.4500   -2.1170    4.9310 ho        1 MOL      0.415335
    123 H57        -3.4700   -0.0650    5.8150 hc        1 MOL      0.053653
    124 H58        -4.2120   -1.6580    5.9900 hc        1 MOL      0.053653
    125 H59        -2.8960   -1.2000    7.0030 hc        1 MOL      0.053653
    126 N11        -4.7300    0.1220    2.9880 n         1 MOL     -0.352002
    127 C39        -6.0900    0.2090    2.4220 c3        1 MOL     -0.303558
    128 C40        -6.1700   -0.3620    1.0520 c         1 MOL      0.455259
    129 O19        -5.3980    0.1380    0.2440 o         1 MOL     -0.472875
    130 C41        -6.4090    1.6740    2.4580 c3        1 MOL      0.422108
    131 C42        -7.7340    1.9810    1.6970 c3        1 MOL     -0.245536
    132 O20        -6.4780    2.1980    3.7220 oh        1 MOL     -0.626463
    133 H60        -4.1800    0.9320    3.2080 hn        1 MOL      0.154596
    134 H61        -6.7710   -0.3590    3.0610 h1        1 MOL      0.153309
    135 H62        -5.6080    2.3060    2.0600 h1        1 MOL      0.037383
    136 H63        -5.5780    2.3290    4.0400 ho        1 MOL      0.393271
    137 H64        -8.0360    3.0120    1.8170 hc        1 MOL      0.068851
    138 H65        -7.6280    1.8410    0.6200 hc        1 MOL      0.068851
    139 H66        -8.5730    1.3700    2.0280 hc        1 MOL      0.068851
    140 N12        -6.9360   -1.4350    0.8020 n         1 MOL     -0.214447
    141 C43        -7.0160   -2.1410   -0.4760 c3        1 MOL      0.129412
    142 C44        -5.7120   -2.1420   -1.3080 c         1 MOL      0.539512
    143 O21        -5.5140   -1.4580   -2.3240 o         1 MOL     -0.586675
    144 C45        -8.2160   -1.8130   -1.3570 c3        1 MOL     -0.513687
    145 C46        -9.4360   -2.2680   -0.5810 c3        1 MOL     -0.023518
    146 C47       -10.7470   -2.3750   -1.3700 c3        1 MOL     -0.120234
    147 C48       -11.2420   -1.0770   -2.0360 c3        1 MOL      0.118463
    148 N13       -12.4110   -1.2520   -2.8390 n4        1 MOL     -0.288509
    149 H67        -7.4900   -1.8360    1.5420 hn        1 MOL      0.207580
    150 H68        -7.0930   -3.1740   -0.1470 h1        1 MOL      0.041773
    151 H69        -8.2850   -2.5050   -2.2020 hc        1 MOL      0.205096
    152 H70        -8.2890   -0.7760   -1.6860 hc        1 MOL      0.205096
    153 H71        -9.6490   -1.4850    0.1450 hc        1 MOL      0.049521
    154 H72        -9.3360   -3.2690   -0.1580 hc        1 MOL      0.049521
    155 H73       -11.4790   -2.8660   -0.7300 hc        1 MOL      0.066838
    156 H74       -10.5530   -3.0730   -2.1810 hc        1 MOL      0.066838
    157 H75       -10.4360   -0.6970   -2.6670 hx        1 MOL      0.038592
    158 H76       -11.4040   -0.3300   -1.2530 hx        1 MOL      0.038592
    159 H77       -13.1270   -1.8010   -2.3990 hn        1 MOL      0.232473
    160 H78       -12.8040   -0.3280   -2.9710 hn        1 MOL      0.232473
    161 H79       -12.0680   -1.6800   -3.6830 hn        1 MOL      0.232473
    162 N14        -4.7250   -2.9460   -0.9040 n         1 MOL     -0.382077
    163 C49        -3.4490   -3.2420   -1.6070 c3        1 MOL      0.299600
    164 C50        -2.2310   -2.8760   -0.7440 c         1 MOL      0.305215
    165 O22        -1.6330   -1.8700   -1.0230 o         1 MOL     -0.522155
    166 C51        -3.4730   -4.6020   -2.2920 c3        1 MOL     -0.083905
    167 C52        -4.7050   -4.6760   -3.2270 c3        1 MOL     -0.251799
    168 C53        -4.6410   -5.9550   -3.9920 c         1 MOL      0.702348
    169 O23        -3.8500   -6.0570   -4.9660 o         1 MOL     -0.637007
    170 O24        -5.2850   -6.9590   -3.5750 o         1 MOL     -0.637007
    171 H80        -4.8550   -3.3520    0.0090 hn        1 MOL      0.218194
    172 H81        -3.3390   -2.5310   -2.4300 h1        1 MOL      0.042766
    173 H82        -3.5150   -5.4490   -1.5980 hc        1 MOL      0.074886
    174 H83        -2.5370   -4.8420   -2.8090 hc        1 MOL      0.074886
    175 H84        -4.9220   -3.8250   -3.8840 hc        1 MOL      0.033158
    176 H85        -5.6500   -4.7610   -2.6920 hc        1 MOL      0.033158
    177 N15        -1.7880   -3.5740    0.2640 n         1 MOL     -0.286450
    178 C54        -2.2310   -4.8790    0.7580 c3        1 MOL     -0.006609
    179 H86        -3.1200   -5.1910    0.2100 h1        1 MOL      0.023713
    180 H87        -1.4380   -5.6120    0.6120 h1        1 MOL      0.023713
    181 H88        -2.4660   -4.8050    1.8200 h1        1 MOL      0.023713
    182 H89        -1.1150   -3.0610    0.8160 hn        1 MOL      0.369821
    183 Ca1        -0.3820    0.6440   -0.9090 Ca        1 MOL      1.786135
    184 O25         1.5930   -0.1450   -2.6630 oh        1 MOL     -0.925212
    185 H90         1.7320    0.6980   -3.0760 ho        1 MOL      0.443255
    186 H91         2.4610   -0.4210   -2.3570 ho        1 MOL      0.443255
    187 O26        -3.0200    0.9030   -0.4580 oh        1 MOL     -0.925212
    188 H92        -3.6760    0.2560   -0.2010 ho        1 MOL      0.443255
    189 H93        -3.5070    1.7260   -0.4980 ho        1 MOL      0.443255
    190 O27        -1.6880   -0.2540   -3.4480 oh        1 MOL     -0.925212
    191 H94        -1.3910   -0.5700   -4.3050 ho        1 MOL      0.443255
    192 H95        -2.6400   -0.3270   -3.4700 ho        1 MOL      0.443255
@<TRIPOS>BOND
     1    1    2 1   
     2    1    4 1   
     3    1    5 1   
     4    1    6 1   
     5    2    3 2   
     6    2    7 1   
     7    7    8 1   
     8    7   15 1   
     9    8    9 1   
    10    8   11 1   
    11    8   16 1   
    12    9   10 2   
    13    9   19 1   
    14   11   12 1   
    15   11   17 1   
    16   11   18 1   
    17   12   13 1   
    18   12   14 1   
    19   19   20 1   
    20   19   28 1   
    21   20   21 1   
    22   20   23 1   
    23   20   29 1   
    24   21   22 2   
    25   21   41 1   
    26   23   24 1   
    27   23   30 1   
    28   23   31 1   
    29   24   25 1   
    30   24   32 1   
    31   24   33 1   
    32   25   26 1   
    33   25   34 1   
    34   25   35 1   
    35   26   27 1   
    36   26   36 1   
    37   26   37 1   
    38   27   38 1   
    39   27   39 1   
    40   27   40 1   
    41   41   42 1   
    42   41   49 1   
    43   42   43 1   
    44   42   45 1   
    45   42   50 1   
    46   43   44 2   
    47   43   53 1   
    48   45   46 1   
    49   45   51 1   
    50   45   52 1   
    51   46   47 1   
    52   46   48 1   
    53   53   54 1   
    54   53   57 1   
    55   54   55 1   
    56   54   58 1   
    57   54   59 1   
    58   55   56 2   
    59   55   60 1   
    60   60   61 1   
    61   60   68 1   
    62   61   62 1   
    63   61   64 1   
    64   61   69 1   
    65   62   63 2   
    66   62   72 1   
    67   64   65 1   
    68   64   70 1   
    69   64   71 1   
    70   65   66 1   
    71   65   67 1   
    72   72   73 1   
    73   72   76 1   
    74   73   74 1   
    75   73   77 1   
    76   73   78 1   
    77   74   75 2   
    78   74   79 1   
    79   79   80 1   
    80   79   86 1   
    81   80   81 1   
    82   80   83 1   
    83   80   87 1   
    84   81   82 2   
    85   81   93 1   
    86   83   84 1   
    87   83   85 1   
    88   83   88 1   
    89   84   90 1   
    90   84   91 1   
    91   84   92 1   
    92   85   89 1   
    93   93   94 1   
    94   93  101 1   
    95   94   95 1   
    96   94   97 1   
    97   94  102 1   
    98   95   96 2   
    99   95  112 1   
   100   97   98 1   
   101   97   99 1   
   102   97  103 1   
   103   98  100 1   
   104   98  104 1   
   105   98  105 1   
   106   99  106 1   
   107   99  107 1   
   108   99  108 1   
   109  100  109 1   
   110  100  110 1   
   111  100  111 1   
   112  112  113 1   
   113  112  119 1   
   114  113  114 1   
   115  113  116 1   
   116  113  120 1   
   117  114  115 2   
   118  114  126 1   
   119  116  117 1   
   120  116  118 1   
   121  116  121 1   
   122  117  123 1   
   123  117  124 1   
   124  117  125 1   
   125  118  122 1   
   126  126  127 1   
   127  126  133 1   
   128  127  128 1   
   129  127  130 1   
   130  127  134 1   
   131  128  129 2   
   132  128  140 1   
   133  130  131 1   
   134  130  132 1   
   135  130  135 1   
   136  131  137 1   
   137  131  138 1   
   138  131  139 1   
   139  132  136 1   
   140  140  141 1   
   141  140  149 1   
   142  141  142 1   
   143  141  144 1   
   144  141  150 1   
   145  142  143 2   
   146  142  162 1   
   147  144  145 1   
   148  144  151 1   
   149  144  152 1   
   150  145  146 1   
   151  145  153 1   
   152  145  154 1   
   153  146  147 1   
   154  146  155 1   
   155  146  156 1   
   156  147  148 1   
   157  147  157 1   
   158  147  158 1   
   159  148  159 1   
   160  148  160 1   
   161  148  161 1   
   162  162  163 1   
   163  162  171 1   
   164  163  164 1   
   165  163  166 1   
   166  163  172 1   
   167  164  165 2   
   168  164  177 1   
   169  166  167 1   
   170  166  173 1   
   171  166  174 1   
   172  167  168 1   
   173  167  175 1   
   174  167  176 1   
   175  168  169 1   
   176  168  170 1   
   177  177  178 1   
   178  177  182 1   
   179  178  179 1   
   180  178  180 1   
   181  178  181 1   
   182  184  185 1   
   183  184  186 1   
   184  187  188 1   
   185  187  189 1   
   186  190  191 1   
   187  190  192 1   
@<TRIPOS>SUBSTRUCTURE
     1 MOL         1 TEMP              0 ****  ****    0 ROOT
