@<TRIPOS>MOLECULE
MOL
  192   187     1     0     0
SMALL
resp


@<TRIPOS>ATOM
      1 C1        -11.1540   -5.3890   -3.1540 c3        1 MOL     -0.453386
      2 C2        -10.7340   -4.0580   -2.3870 c         1 MOL      0.715387
      3 O1        -11.1060   -2.9660   -2.8400 o         1 MOL     -0.596261
      4 H1        -10.5980   -6.2330   -2.7460 hc        1 MOL      0.123045
      5 H2        -12.2220   -5.5620   -3.0260 hc        1 MOL      0.123045
      6 H3        -10.9270   -5.2840   -4.2150 hc        1 MOL      0.123045
      7 N1        -10.0720   -4.1250   -1.2220 n         1 MOL     -0.275676
      8 C3         -9.8590   -2.9100   -0.3990 c3        1 MOL     -0.663175
      9 C4         -8.5710   -2.0890   -0.4620 c         1 MOL      0.683565
     10 O2         -7.4570   -2.6360   -0.4320 o         1 MOL     -0.663325
     11 C5        -10.2910   -3.1900    1.0770 c3        1 MOL      0.209531
     12 C6         -9.6010   -4.3490    1.7220 c         1 MOL      0.801016
     13 O3         -8.7230   -5.0330    1.1310 o         1 MOL     -0.739060
     14 O4        -10.0700   -4.7140    2.8400 o         1 MOL     -0.739060
     15 H4         -9.8710   -5.0240   -0.7950 hn        1 MOL      0.159619
     16 H5        -10.5770   -2.1450   -0.6720 h1        1 MOL      0.217067
     17 H6        -11.3710   -3.3560    1.1520 hc        1 MOL     -0.000030
     18 H7        -10.1280   -2.2960    1.6800 hc        1 MOL     -0.000030
     19 N2         -8.7180   -0.7950   -0.6330 n         1 MOL     -0.190338
     20 C7         -7.7270    0.2900   -0.8130 c3        1 MOL      0.062367
     21 C8         -7.0550    0.7750    0.4830 c         1 MOL      0.428325
     22 O5         -7.1150    1.9260    0.7910 o         1 MOL     -0.501201
     23 C9         -8.3390    1.4440   -1.5900 c3        1 MOL     -0.390927
     24 C10        -7.3370    2.3330   -2.4040 c3        1 MOL      0.288396
     25 C11        -8.0820    3.2580   -3.2990 c3        1 MOL     -0.064299
     26 C12        -7.0660    4.2170   -3.8590 c3        1 MOL      0.067340
     27 N3         -7.6600    5.2480   -4.7090 n4        1 MOL     -0.339254
     28 H8         -9.7110   -0.6100   -0.7240 hn        1 MOL      0.189686
     29 H9         -6.9460   -0.1950   -1.4010 h1        1 MOL      0.064484
     30 H10        -8.9090    2.0800   -0.9130 hc        1 MOL      0.126558
     31 H11        -9.0260    1.0330   -2.3290 hc        1 MOL      0.126558
     32 H12        -6.7950    1.6090   -3.0080 hc        1 MOL     -0.016537
     33 H13        -6.7210    3.0260   -1.8400 hc        1 MOL     -0.016537
     34 H14        -8.8330    3.8230   -2.7550 hc        1 MOL      0.011258
     35 H15        -8.5480    2.6380   -4.0720 hc        1 MOL      0.011258
     36 H16        -6.3700    3.6000   -4.4310 hx        1 MOL      0.076045
     37 H17        -6.6110    4.6780   -2.9850 hx        1 MOL      0.076045
     38 H18        -8.4330    5.5910   -4.1530 hn        1 MOL      0.268582
     39 H19        -6.9560    5.8850   -5.0620 hn        1 MOL      0.268582
     40 H20        -7.9810    4.8080   -5.5640 hn        1 MOL      0.268582
     41 N4         -6.3770   -0.1690    1.1270 n         1 MOL     -0.207544
     42 C13        -5.3070   -0.0870    2.1730 c3        1 MOL      0.188605
     43 C14        -3.8790   -0.1260    1.5910 c         1 MOL      0.478010
     44 O6         -3.5980   -0.7330    0.5360 o         1 MOL     -0.601551
     45 C15        -5.4060   -1.1920    3.2120 c3        1 MOL     -0.280934
     46 C16        -5.6860   -2.6300    2.6980 c         1 MOL      0.693715
     47 O7         -6.8840   -3.0080    2.5360 o         1 MOL     -0.698779
     48 O8         -4.7370   -3.4240    2.3780 o         1 MOL     -0.698779
     49 H21        -6.5030   -1.0750    0.7040 hn        1 MOL      0.050570
     50 H22        -5.4310    0.9160    2.5760 h1        1 MOL      0.065416
     51 H23        -6.2900   -0.8870    3.7540 hc        1 MOL      0.085336
     52 H24        -4.4580   -1.1990    3.7630 hc        1 MOL      0.085336
     53 N5         -2.8050    0.4450    2.0650 n         1 MOL     -0.363757
     54 C17        -2.8450    1.4080    3.2070 c3        1 MOL     -0.174968
     55 C18        -3.1800    2.8760    2.7730 c         1 MOL      0.520329
     56 O9         -3.5560    3.0620    1.6440 o         1 MOL     -0.508511
     57 H25        -1.8900    0.3300    1.6370 hn        1 MOL      0.368303
     58 H26        -1.7950    1.3720    3.5040 h1        1 MOL      0.093823
     59 H27        -3.5160    1.1100    4.0120 h1        1 MOL      0.093823
     60 N6         -2.8860    3.8640    3.5790 n         1 MOL     -0.349342
     61 C19        -2.7190    5.3550    3.2430 c3        1 MOL     -0.071926
     62 C20        -1.9050    5.6140    1.9290 c         1 MOL      0.595958
     63 O10        -0.6460    5.6290    2.0190 o         1 MOL     -0.489336
     64 C21        -2.0470    6.0480    4.4670 c3        1 MOL     -0.202899
     65 C22        -1.8370    7.5800    4.2880 c         1 MOL      0.652499
     66 O11        -1.0040    8.1300    5.0890 o         1 MOL     -0.641737
     67 O12        -2.3380    8.2250    3.3160 o         1 MOL     -0.641737
     68 H28        -2.6190    3.7160    4.5390 hn        1 MOL      0.256749
     69 H29        -3.7490    5.7000    3.0950 h1        1 MOL      0.057018
     70 H30        -1.1510    5.5540    4.8440 hc        1 MOL      0.065611
     71 H31        -2.7520    5.9210    5.2920 hc        1 MOL      0.065611
     72 N7         -2.6280    5.8750    0.8590 n         1 MOL     -0.391577
     73 C23        -1.9850    6.2830   -0.3450 c3        1 MOL     -0.209929
     74 C24        -1.4840    5.1400   -1.1810 c         1 MOL      0.435986
     75 O13        -0.7250    5.4320   -2.1090 o         1 MOL     -0.511060
     76 H32        -3.6090    5.6620    0.8490 hn        1 MOL      0.303062
     77 H33        -1.1400    6.9350   -0.1380 h1        1 MOL      0.151212
     78 H34        -2.7750    6.7720   -0.9200 h1        1 MOL      0.151212
     79 N8         -1.9350    3.8350   -0.8320 n         1 MOL     -0.134636
     80 C25        -1.5700    2.6600   -1.6080 c3        1 MOL      0.105987
     81 C26        -0.6380    1.7440   -0.8420 c         1 MOL      0.415102
     82 O14        -0.4720    1.9270    0.3760 o         1 MOL     -0.476348
     83 C27        -2.8530    1.9610   -2.1020 c3        1 MOL      0.501352
     84 C28        -3.7410    2.9060   -2.8600 c3        1 MOL     -0.721011
     85 O15        -2.4870    0.9660   -3.0390 oh        1 MOL     -0.571313
     86 H35        -2.3090    3.7180    0.0980 hn        1 MOL      0.060630
     87 H36        -1.0170    3.0550   -2.4620 h1        1 MOL      0.025563
     88 H37        -3.2630    1.4100   -1.2630 h1        1 MOL     -0.032678
     89 H38        -3.2340    0.3820   -3.1900 ho        1 MOL      0.358338
     90 H39        -4.0650    3.7350   -2.2350 hc        1 MOL      0.148472
     91 H40        -3.1710    3.3130   -3.7010 hc        1 MOL      0.148472
     92 H41        -4.5870    2.3740   -3.2860 hc        1 MOL      0.148472
     93 N9         -0.0680    0.6480   -1.4100 n         1 MOL     -0.104172
     94 C29         0.4850   -0.4940   -0.6630 c3        1 MOL     -0.389432
     95 C30         1.9390   -0.2500   -0.3490 c         1 MOL      0.609214
     96 O16         2.4990   -1.0400    0.4150 o         1 MOL     -0.548948
     97 C31         0.2640   -1.8150   -1.3940 c3        1 MOL      0.399047
     98 C32         0.7120   -1.8860   -2.8800 c3        1 MOL      0.042429
     99 C33        -1.2610   -2.2640   -1.3840 c3        1 MOL     -0.314800
    100 C34         0.7670   -3.3080   -3.4490 c3        1 MOL     -0.225560
    101 H42        -0.3080    0.5140   -2.3790 hn        1 MOL      0.102041
    102 H43        -0.0410   -0.5360    0.2880 h1        1 MOL      0.133931
    103 H44         0.8460   -2.6040   -0.9340 hc        1 MOL     -0.022712
    104 H45         1.7150   -1.4600   -2.9120 hc        1 MOL     -0.005167
    105 H46         0.0080   -1.3440   -3.5070 hc        1 MOL     -0.005167
    106 H47        -1.4850   -3.2210   -1.8630 hc        1 MOL      0.048932
    107 H48        -1.6540   -2.2020   -0.3700 hc        1 MOL      0.048932
    108 H49        -1.7760   -1.3950   -1.7870 hc        1 MOL      0.048932
    109 H50         1.2800   -3.4280   -4.4030 hc        1 MOL      0.058699
    110 H51         1.3920   -3.8920   -2.7680 hc        1 MOL      0.058699
    111 H52        -0.2470   -3.6850   -3.5420 hc        1 MOL      0.058699
    112 N10         2.6340    0.7290   -0.9640 n         1 MOL     -0.424780
    113 C35         3.9490    1.2200   -0.5370 c3        1 MOL      0.046136
    114 C36         4.8470    1.5220   -1.7630 c         1 MOL      0.593256
    115 O17         4.3870    2.0470   -2.7410 o         1 MOL     -0.518277
    116 C37         3.8980    2.4350    0.4010 c3        1 MOL      0.316388
    117 C38         3.2150    2.2030    1.7190 c3        1 MOL     -0.173183
    118 O18         5.1890    2.8190    0.7680 oh        1 MOL     -0.657517
    119 H53         2.0390    1.3550   -1.4860 hn        1 MOL      0.196882
    120 H54         4.4670    0.4440    0.0230 h1        1 MOL      0.095271
    121 H55         3.3850    3.2580   -0.0940 h1        1 MOL      0.013682
    122 H56         5.0950    3.6890    1.1760 ho        1 MOL      0.405350
    123 H57         2.1480    2.3280    1.5490 hc        1 MOL      0.055743
    124 H58         3.4620    1.2250    2.1380 hc        1 MOL      0.055743
    125 H59         3.4340    2.9610    2.4680 hc        1 MOL      0.055743
    126 N11         6.1620    1.1720   -1.7320 n         1 MOL     -0.554577
    127 C39         7.1790    1.6050   -2.7050 c3        1 MOL     -0.065866
    128 C40         8.4150    0.6470   -2.6230 c         1 MOL      0.641783
    129 O19         8.9100    0.4030   -3.7100 o         1 MOL     -0.554046
    130 C41         7.5650    3.1350   -2.3670 c3        1 MOL      0.317589
    131 C42         8.6290    3.6740   -3.2740 c3        1 MOL     -0.372187
    132 O20         8.0740    3.2560   -1.0980 oh        1 MOL     -0.595090
    133 H60         6.5160    0.8760   -0.8400 hn        1 MOL      0.235535
    134 H61         6.7400    1.5520   -3.6960 h1        1 MOL      0.133216
    135 H62         6.6390    3.6990   -2.4590 h1        1 MOL      0.036334
    136 H63         7.3800    3.1820   -0.4290 ho        1 MOL      0.366864
    137 H64         8.6880    4.7480   -3.1220 hc        1 MOL      0.104008
    138 H65         9.5740    3.1670   -3.0910 hc        1 MOL      0.104008
    139 H66         8.2570    3.5620   -4.3020 hc        1 MOL      0.104008
    140 N12         8.8110    0.1780   -1.4150 n         1 MOL     -0.421145
    141 C43         9.9050   -0.6890   -1.1440 c3        1 MOL     -0.285944
    142 C44         9.6800   -1.5610    0.1210 c         1 MOL      0.580614
    143 O21         9.4780   -1.1280    1.2220 o         1 MOL     -0.515227
    144 C45        11.1110    0.2510   -0.9770 c3        1 MOL     -0.015382
    145 C46        11.1800    1.1830    0.2460 c3        1 MOL     -0.058127
    146 C47        12.3300    2.1040    0.1730 c3        1 MOL     -0.022832
    147 C48        12.6660    2.7190    1.5870 c3        1 MOL      0.015128
    148 N13        13.7320    3.7900    1.4730 n4        1 MOL     -0.247341
    149 H67         8.2700    0.6260   -0.6850 hn        1 MOL      0.335686
    150 H68         9.9940   -1.3770   -1.9890 h1        1 MOL      0.171248
    151 H69        11.3230    0.7680   -1.9210 hc        1 MOL      0.056016
    152 H70        11.9970   -0.3840   -0.9770 hc        1 MOL      0.056016
    153 H71        11.3580    0.5570    1.1170 hc        1 MOL      0.055327
    154 H72        10.2400    1.7180    0.3920 hc        1 MOL      0.055327
    155 H73        12.2230    2.9760   -0.4730 hc        1 MOL      0.028515
    156 H74        13.2170    1.6640   -0.2620 hc        1 MOL      0.028515
    157 H75        12.9320    1.9070    2.2700 hx        1 MOL      0.088291
    158 H76        11.7430    3.1060    2.0140 hx        1 MOL      0.088291
    159 H77        14.4450    3.4280    0.8460 hn        1 MOL      0.252162
    160 H78        13.4760    4.6690    1.0580 hn        1 MOL      0.252162
    161 H79        14.1560    3.8830    2.3820 hn        1 MOL      0.252162
    162 N14         9.7690   -2.8820   -0.0750 n         1 MOL     -0.370618
    163 C49         9.8250   -3.8620    0.9980 c3        1 MOL      0.116324
    164 C50         8.5310   -4.1400    1.7040 c         1 MOL      0.470549
    165 O22         8.3830   -4.1810    2.8990 o         1 MOL     -0.539754
    166 C51        10.4440   -5.1790    0.4620 c3        1 MOL     -0.061295
    167 C52        11.2700   -5.9360    1.4620 c3        1 MOL     -0.371255
    168 C53        12.2140   -6.9760    0.8530 c         1 MOL      0.759149
    169 O23        13.4610   -6.7970    0.8430 o         1 MOL     -0.645691
    170 O24        11.8090   -8.0370    0.3570 o         1 MOL     -0.645691
    171 H80        10.1120   -3.2990   -0.9260 hn        1 MOL      0.246158
    172 H81        10.4910   -3.4240    1.7480 h1        1 MOL      0.052771
    173 H82        11.0510   -4.9830   -0.4220 hc        1 MOL      0.057969
    174 H83         9.5980   -5.8160    0.1980 hc        1 MOL      0.057969
    175 H84        10.5470   -6.3660    2.1450 hc        1 MOL      0.096851
    176 H85        11.9140   -5.2590    2.0190 hc        1 MOL      0.096851
    177 N15         7.3710   -4.3390    1.0130 n         1 MOL     -0.394941
    178 C54         7.1980   -4.4740   -0.4610 c3        1 MOL      0.134730
    179 H86         6.6630   -3.6050   -0.8440 h1        1 MOL     -0.002886
    180 H87         8.1770   -4.5370   -0.9370 h1        1 MOL     -0.002886
    181 H88         6.6290   -5.3780   -0.6800 h1        1 MOL     -0.002886
    182 H89         6.5730   -4.5200    1.5920 hn        1 MOL      0.291147
    183 Ca1        -6.2530   -4.7960    0.6440 Ca        1 MOL      1.797247
    184 O25        -4.7090   -2.7110   -0.6490 oh        1 MOL     -0.923898
    185 H90        -4.3480   -1.9560   -0.1910 ho        1 MOL      0.449383
    186 H91        -4.1530   -2.8140   -1.4190 ho        1 MOL      0.449383
    187 O26        -3.7440   -5.7810    0.0490 oh        1 MOL     -0.923898
    188 H92        -2.9030   -5.5230    0.4210 ho        1 MOL      0.449383
    189 H93        -3.5510   -6.5770   -0.4500 ho        1 MOL      0.449383
    190 O27        -6.1900   -6.4520    2.6310 oh        1 MOL     -0.923898
    191 H94        -5.5090   -6.8170    3.1990 ho        1 MOL      0.449383
    192 H95        -7.0060   -6.5860    3.1120 ho        1 MOL      0.449383
@<TRIPOS>BOND
     1    1    2 1   
     2    1    4 1   
     3    1    5 1   
     4    1    6 1   
     5    2    3 2   
     6    2    7 1   
     7    7    8 1   
     8    7   15 1   
     9    8    9 1   
    10    8   11 1   
    11    8   16 1   
    12    9   10 2   
    13    9   19 1   
    14   11   12 1   
    15   11   17 1   
    16   11   18 1   
    17   12   13 1   
    18   12   14 1   
    19   19   20 1   
    20   19   28 1   
    21   20   21 1   
    22   20   23 1   
    23   20   29 1   
    24   21   22 2   
    25   21   41 1   
    26   23   24 1   
    27   23   30 1   
    28   23   31 1   
    29   24   25 1   
    30   24   32 1   
    31   24   33 1   
    32   25   26 1   
    33   25   34 1   
    34   25   35 1   
    35   26   27 1   
    36   26   36 1   
    37   26   37 1   
    38   27   38 1   
    39   27   39 1   
    40   27   40 1   
    41   41   42 1   
    42   41   49 1   
    43   42   43 1   
    44   42   45 1   
    45   42   50 1   
    46   43   44 2   
    47   43   53 1   
    48   45   46 1   
    49   45   51 1   
    50   45   52 1   
    51   46   47 1   
    52   46   48 1   
    53   53   54 1   
    54   53   57 1   
    55   54   55 1   
    56   54   58 1   
    57   54   59 1   
    58   55   56 2   
    59   55   60 1   
    60   60   61 1   
    61   60   68 1   
    62   61   62 1   
    63   61   64 1   
    64   61   69 1   
    65   62   63 2   
    66   62   72 1   
    67   64   65 1   
    68   64   70 1   
    69   64   71 1   
    70   65   66 1   
    71   65   67 1   
    72   72   73 1   
    73   72   76 1   
    74   73   74 1   
    75   73   77 1   
    76   73   78 1   
    77   74   75 2   
    78   74   79 1   
    79   79   80 1   
    80   79   86 1   
    81   80   81 1   
    82   80   83 1   
    83   80   87 1   
    84   81   82 2   
    85   81   93 1   
    86   83   84 1   
    87   83   85 1   
    88   83   88 1   
    89   84   90 1   
    90   84   91 1   
    91   84   92 1   
    92   85   89 1   
    93   93   94 1   
    94   93  101 1   
    95   94   95 1   
    96   94   97 1   
    97   94  102 1   
    98   95   96 2   
    99   95  112 1   
   100   97   98 1   
   101   97   99 1   
   102   97  103 1   
   103   98  100 1   
   104   98  104 1   
   105   98  105 1   
   106   99  106 1   
   107   99  107 1   
   108   99  108 1   
   109  100  109 1   
   110  100  110 1   
   111  100  111 1   
   112  112  113 1   
   113  112  119 1   
   114  113  114 1   
   115  113  116 1   
   116  113  120 1   
   117  114  115 2   
   118  114  126 1   
   119  116  117 1   
   120  116  118 1   
   121  116  121 1   
   122  117  123 1   
   123  117  124 1   
   124  117  125 1   
   125  118  122 1   
   126  126  127 1   
   127  126  133 1   
   128  127  128 1   
   129  127  130 1   
   130  127  134 1   
   131  128  129 2   
   132  128  140 1   
   133  130  131 1   
   134  130  132 1   
   135  130  135 1   
   136  131  137 1   
   137  131  138 1   
   138  131  139 1   
   139  132  136 1   
   140  140  141 1   
   141  140  149 1   
   142  141  142 1   
   143  141  144 1   
   144  141  150 1   
   145  142  143 2   
   146  142  162 1   
   147  144  145 1   
   148  144  151 1   
   149  144  152 1   
   150  145  146 1   
   151  145  153 1   
   152  145  154 1   
   153  146  147 1   
   154  146  155 1   
   155  146  156 1   
   156  147  148 1   
   157  147  157 1   
   158  147  158 1   
   159  148  159 1   
   160  148  160 1   
   161  148  161 1   
   162  162  163 1   
   163  162  171 1   
   164  163  164 1   
   165  163  166 1   
   166  163  172 1   
   167  164  165 2   
   168  164  177 1   
   169  166  167 1   
   170  166  173 1   
   171  166  174 1   
   172  167  168 1   
   173  167  175 1   
   174  167  176 1   
   175  168  169 1   
   176  168  170 1   
   177  177  178 1   
   178  177  182 1   
   179  178  179 1   
   180  178  180 1   
   181  178  181 1   
   182  184  185 1   
   183  184  186 1   
   184  187  188 1   
   185  187  189 1   
   186  190  191 1   
   187  190  192 1   
@<TRIPOS>SUBSTRUCTURE
     1 MOL         1 TEMP              0 ****  ****    0 ROOT
