@<TRIPOS>MOLECULE
MOL
  194   186     1     0     0
SMALL
resp


@<TRIPOS>ATOM
      1 C1          1.5920    1.2880    3.2640 c3        1 MOL     -0.418805
      2 C2          2.5580    1.1930    2.0760 c         1 MOL      0.723356
      3 O1          2.2360    1.5280    0.9320 o         1 MOL     -0.583626
      4 H1          1.6780    0.3880    3.8740 hc        1 MOL      0.120023
      5 H2          1.8430    2.1600    3.8680 hc        1 MOL      0.120023
      6 H3          0.5700    1.3820    2.8960 hc        1 MOL      0.120023
      7 N1          3.8080    0.7140    2.2240 n         1 MOL     -0.642022
      8 C3          4.9190    0.8370    1.2710 c3        1 MOL      0.172205
      9 C4          5.8820   -0.3850    1.2480 c         1 MOL      0.262592
     10 O2          6.8630   -0.4270    0.5270 o         1 MOL     -0.404523
     11 C5          5.8550    2.0230    1.5390 c3        1 MOL      0.028435
     12 C6          6.5700    2.0900    2.8730 c         1 MOL      0.551542
     13 O3          6.3200    1.2020    3.7380 o         1 MOL     -0.655298
     14 O4          7.4670    3.0020    3.0620 o         1 MOL     -0.655298
     15 H4          4.0550    0.2880    3.1020 hn        1 MOL      0.312895
     16 H5          4.6300    0.9480    0.2280 h1        1 MOL      0.079703
     17 H6          5.1960    2.8860    1.4040 hc        1 MOL      0.021524
     18 H7          6.5260    2.1410    0.6970 hc        1 MOL      0.021524
     19 N2          5.6150   -1.4450    2.0030 n         1 MOL     -0.200587
     20 C7          6.3900   -2.6520    2.2390 c3        1 MOL      0.017253
     21 C8          6.8100   -3.3040    0.9620 c         1 MOL      0.415707
     22 O5          8.0100   -3.6540    0.7360 o         1 MOL     -0.533286
     23 C9          7.5090   -2.4340    3.1800 c3        1 MOL     -0.180225
     24 C10         7.2360   -2.0450    4.6420 c3        1 MOL      0.070045
     25 C11         8.4220   -1.7860    5.5930 c3        1 MOL     -0.125105
     26 C12         8.4520   -0.3800    6.1150 c3        1 MOL      0.033243
     27 N3          8.6540    0.5380    4.9910 n4        1 MOL     -0.423975
     28 H8          4.7010   -1.4300    2.4220 hn        1 MOL      0.190554
     29 H9          5.7220   -3.4200    2.6120 h1        1 MOL      0.072123
     30 H10         8.2510   -1.7210    2.8150 hc        1 MOL      0.080188
     31 H11         7.9860   -3.4090    3.1960 hc        1 MOL      0.080188
     32 H12         6.7580   -2.9230    5.0740 hc        1 MOL      0.005103
     33 H13         6.5430   -1.2070    4.6600 hc        1 MOL      0.005103
     34 H14         9.3760   -1.8980    5.0680 hc        1 MOL      0.054767
     35 H15         8.3450   -2.4170    6.4840 hc        1 MOL      0.054767
     36 H16         9.2820   -0.2010    6.7960 hx        1 MOL      0.079579
     37 H17         7.5890   -0.1320    6.7260 hx        1 MOL      0.079579
     38 H18         9.0110    1.3950    5.3840 hn        1 MOL      0.334864
     39 H19         9.2260    0.1750    4.2370 hn        1 MOL      0.334864
     40 H20         7.8010    0.6930    4.4740 hn        1 MOL      0.334864
     41 N4          5.9320   -3.2610   -0.0370 n         1 MOL     -0.227920
     42 C13         6.1270   -3.7770   -1.3790 c3        1 MOL      0.155854
     43 C14         5.7640   -2.7400   -2.4390 c         1 MOL      0.534140
     44 O6          4.9790   -2.8840   -3.3500 o         1 MOL     -0.534064
     45 C15         5.2130   -5.0380   -1.5580 c3        1 MOL     -0.333451
     46 C16         3.6970   -4.7830   -1.3990 c         1 MOL      0.557873
     47 O7          3.2060   -3.9620   -0.6150 o         1 MOL     -0.646503
     48 O8          3.0130   -5.6210   -2.0580 o         1 MOL     -0.646503
     49 H21         5.0640   -2.7680    0.1380 hn        1 MOL      0.155678
     50 H22         7.1790   -3.9730   -1.5920 h1        1 MOL      0.043771
     51 H23         5.5190   -5.7400   -0.7820 hc        1 MOL      0.095877
     52 H24         5.4300   -5.5150   -2.5190 hc        1 MOL      0.095877
     53 N5          6.3720   -1.5780   -2.2430 n         1 MOL     -0.348576
     54 C17         6.5230   -0.3320   -3.0580 c3        1 MOL     -0.097112
     55 C18         7.5050    0.6210   -2.5000 c         1 MOL      0.439746
     56 O9          8.6470    0.1690   -2.2230 o         1 MOL     -0.517609
     57 H25         6.8680   -1.5810   -1.3470 hn        1 MOL      0.223686
     58 H26         5.5720    0.1990   -3.0990 h1        1 MOL      0.098319
     59 H27         6.8380   -0.6410   -4.0540 h1        1 MOL      0.098319
     60 N6          7.2630    1.9020   -2.4750 n         1 MOL     -0.465115
     61 C19         6.0020    2.6120   -2.5130 c3        1 MOL      0.376278
     62 C20         5.9110    3.7880   -1.5140 c         1 MOL      0.431426
     63 O10         6.9620    4.2510   -1.0880 o         1 MOL     -0.513926
     64 C21         5.7080    3.1260   -3.9390 c3        1 MOL     -0.444393
     65 C22         4.8920    2.0920   -4.6780 c         1 MOL      0.660310
     66 N7          5.3870    1.5940   -5.8030 n         1 MOL     -0.775347
     67 O11         3.7850    1.7330   -4.2690 o         1 MOL     -0.543530
     68 H28         8.0710    2.4860   -2.3140 hn        1 MOL      0.302713
     69 H29         5.1810    1.9620   -2.2440 h1        1 MOL      0.025249
     70 H30         6.6390    3.3290   -4.4720 hc        1 MOL      0.126170
     71 H31         5.0930    4.0150   -3.8760 hc        1 MOL      0.126170
     72 H32         6.3130    1.9060   -6.0370 hn        1 MOL      0.371846
     73 H33         4.9210    0.8290   -6.2590 hn        1 MOL      0.371846
     74 N8          4.7040    4.2170   -1.1890 n         1 MOL     -0.441867
     75 C23         3.3800    3.6690   -1.3870 c3        1 MOL      0.013213
     76 C24         2.1570    4.5140   -0.9270 c         1 MOL      0.725084
     77 O12         2.2440    5.7080   -0.6030 o         1 MOL     -0.593196
     78 H34         4.7390    5.0260   -0.5880 hn        1 MOL      0.288850
     79 H35         3.3520    2.7460   -0.8050 h1        1 MOL      0.029252
     80 H36         3.2070    3.3730   -2.4200 h1        1 MOL      0.029252
     81 N9          1.0030    3.9280   -1.0130 n         1 MOL     -0.652941
     82 C25        -0.2950    4.4790   -0.5380 c3        1 MOL      0.258095
     83 C26        -1.3120    3.3330   -0.2210 c         1 MOL      0.548648
     84 O13        -1.0830    2.2340   -0.7300 o         1 MOL     -0.553212
     85 C27        -0.8760    5.4290   -1.6580 c3        1 MOL     -0.054081
     86 C28        -1.5760    6.6510   -1.1650 ca        1 MOL      0.051799
     87 C29        -2.8950    6.8380   -1.5260 ca        1 MOL     -0.148646
     88 C30        -0.9390    7.4920   -0.2110 ca        1 MOL     -0.148646
     89 C31        -3.6380    7.8790   -0.9210 ca        1 MOL     -0.310199
     90 C32        -1.6350    8.6110    0.3150 ca        1 MOL     -0.310199
     91 C33        -2.9570    8.7880   -0.1200 ca        1 MOL      0.390394
     92 O14        -3.6450    9.8890    0.2860 oh        1 MOL     -0.527132
     93 H37         0.9710    2.9730   -1.3400 hn        1 MOL      0.328508
     94 H38        -0.0780    4.9870    0.3960 h1        1 MOL      0.023645
     95 H39        -1.5450    4.9740   -2.3910 hc        1 MOL      0.045027
     96 H40        -0.0370    5.8020   -2.2460 hc        1 MOL      0.045027
     97 H41        -3.3840    6.2130   -2.2620 ha        1 MOL      0.150469
     98 H42         0.0370    7.1990    0.1470 ha        1 MOL      0.150469
     99 H43        -4.6790    8.0810   -1.1010 ha        1 MOL      0.158929
    100 H44        -1.2610    9.3100    1.0610 ha        1 MOL      0.158929
    101 H45        -3.0420   10.5380    0.6460 ho        1 MOL      0.377942
    102 N10        -2.4340    3.6270    0.3880 n         1 MOL     -0.536372
    103 C34        -3.5920    2.8130    0.6520 c3        1 MOL     -0.015964
    104 C35        -4.3030    2.5630   -0.7070 c         1 MOL      0.702627
    105 O15        -4.3550    3.4390   -1.5500 o         1 MOL     -0.581305
    106 C36        -4.3870    3.5320    1.7810 c3        1 MOL      0.350908
    107 C37        -5.0940    4.7600    1.2250 c3        1 MOL     -0.098786
    108 C38        -5.3200    2.6370    2.6280 c3        1 MOL     -0.204203
    109 C39        -5.5770    5.7230    2.2570 c3        1 MOL     -0.348854
    110 H46        -2.6000    4.5970    0.5760 hn        1 MOL      0.207362
    111 H47        -3.2590    1.8620    1.0640 h1        1 MOL      0.086826
    112 H48        -3.6340    3.8040    2.5190 hc        1 MOL     -0.030818
    113 H49        -5.9270    4.5080    0.5840 hc        1 MOL      0.077060
    114 H50        -4.4740    5.3490    0.5420 hc        1 MOL      0.077060
    115 H51        -6.0960    2.1920    2.0090 hc        1 MOL      0.044279
    116 H52        -4.6450    1.8540    2.9750 hc        1 MOL      0.044279
    117 H53        -5.7010    3.1110    3.5370 hc        1 MOL      0.044279
    118 H54        -4.7110    6.1170    2.8030 hc        1 MOL      0.087835
    119 H55        -6.0480    6.5890    1.7840 hc        1 MOL      0.087835
    120 H56        -6.3090    5.4240    3.0120 hc        1 MOL      0.087835
    121 N11        -4.9870    1.4620   -0.7180 n         1 MOL     -0.531001
    122 C40        -5.7950    1.0430   -1.8530 c3        1 MOL      0.003896
    123 C41        -5.7780   -0.5010   -1.8710 c         1 MOL      0.598495
    124 O16        -5.6340   -1.1310   -0.8710 o         1 MOL     -0.302664
    125 C42        -7.2300    1.5480   -1.7610 c3        1 MOL     -0.058557
    126 O17        -7.8520    1.1410   -0.6140 oh        1 MOL     -0.455242
    127 H57        -4.9120    0.7930    0.0370 hn        1 MOL      0.244539
    128 H58        -5.3930    1.4160   -2.7940 h1        1 MOL      0.103576
    129 H59        -7.8100    1.2930   -2.6470 h1        1 MOL      0.066289
    130 H60        -7.1540    2.6330   -1.7490 h1        1 MOL      0.066289
    131 H61        -8.7590    1.4410   -0.6460 ho        1 MOL      0.407865
    132 N12        -5.9120   -1.0210   -3.0960 n         1 MOL     -0.660328
    133 C43        -6.1890   -2.4520   -3.3630 c3        1 MOL      0.427624
    134 C44        -7.1330   -3.1340   -2.4370 c         1 MOL      0.326924
    135 O18        -6.8740   -4.2680   -1.8440 o         1 MOL     -0.477852
    136 C45        -4.8090   -3.1150   -3.4880 c3        1 MOL     -0.475542
    137 H62        -5.8550   -0.4440   -3.9280 hn        1 MOL      0.318349
    138 H63        -6.6270   -2.5800   -4.3510 h1        1 MOL      0.024121
    139 H64        -4.9550   -4.0500   -4.0250 hc        1 MOL      0.122498
    140 H65        -4.1670   -2.3950   -4.0020 hc        1 MOL      0.122498
    141 H66        -4.4340   -3.2730   -2.4840 hc        1 MOL      0.122498
    142 N13        -8.2660   -2.4240   -2.1730 n         1 MOL     -0.515919
    143 C46        -9.2990   -2.7670   -1.2220 c3        1 MOL      0.524449
    144 C47        -8.9450   -2.7670    0.3190 c         1 MOL      0.084710
    145 O19        -9.5280   -3.5250    1.0940 o         1 MOL     -0.435503
    146 C48       -10.1230   -3.9580   -1.7680 c3        1 MOL     -0.492818
    147 H67        -8.4790   -1.5880   -2.6760 hn        1 MOL      0.265565
    148 H68        -9.9660   -1.9030   -1.2530 h1        1 MOL     -0.034912
    149 H69        -9.4490   -4.7610   -2.0510 hc        1 MOL      0.130753
    150 H70       -10.8540   -4.4670   -1.1280 hc        1 MOL      0.130753
    151 H71       -10.5090   -3.6670   -2.7520 hc        1 MOL      0.130753
    152 N14        -7.8100   -2.1240    0.7410 n         1 MOL      0.138628
    153 C49        -7.3910   -2.1110    2.1550 c3        1 MOL     -0.107025
    154 C50        -8.4240   -1.3780    2.9730 c         1 MOL      0.343838
    155 O20        -8.5830   -1.5860    4.1750 o         1 MOL     -0.487650
    156 C51        -6.0860   -1.3520    2.2200 c3        1 MOL      0.315405
    157 C52        -5.3210   -1.3540    3.5440 c3        1 MOL     -0.360947
    158 C53        -4.6450   -2.6790    3.9080 c         1 MOL      0.694221
    159 O21        -3.6780   -2.9950    3.1750 o         1 MOL     -0.702139
    160 O22        -4.9280   -3.3230    4.9100 o         1 MOL     -0.702139
    161 H72        -7.2680   -1.5840    0.0770 hn        1 MOL     -0.079943
    162 H73        -7.2720   -3.0610    2.6690 h1        1 MOL      0.149711
    163 H74        -6.3200   -0.2970    2.0280 hc        1 MOL     -0.111015
    164 H75        -5.4030   -1.7170    1.4570 hc        1 MOL     -0.111015
    165 H76        -5.8970   -0.9500    4.3800 hc        1 MOL      0.078379
    166 H77        -4.5110   -0.6500    3.3960 hc        1 MOL      0.078379
    167 N15        -9.0930   -0.3870    2.3850 n         1 MOL     -0.079195
    168 C54       -10.0090    0.4310    3.1520 c3        1 MOL     -0.118982
    169 H78       -10.2800   -0.0900    4.0700 h1        1 MOL      0.061420
    170 H79        -9.5320    1.3790    3.4000 h1        1 MOL      0.061420
    171 H80       -10.9070    0.6200    2.5630 h1        1 MOL      0.061420
    172 H81        -8.8160   -0.1570    1.4340 hn        1 MOL      0.072890
    173 Ca1         0.5180   -4.9760   -0.9350 Ca        1 MOL      1.740746
    174 O23        -1.3150   -6.2150    0.5740 oh        1 MOL     -0.833430
    175 H82        -1.9090   -5.9030    1.2640 ho        1 MOL      0.417801
    176 H83        -1.7880   -6.9510    0.1720 ho        1 MOL      0.417801
    177 O24         1.5500   -5.6320    1.3840 oh        1 MOL     -0.833430
    178 H84         2.0140   -5.2080    2.1020 ho        1 MOL      0.417801
    179 H85         1.1310   -6.3910    1.7850 ho        1 MOL      0.417801
    180 O25         0.1070   -5.4290   -3.6400 oh        1 MOL     -0.833430
    181 H86         0.6040   -5.8300   -4.3470 ho        1 MOL      0.417801
    182 H87        -0.7490   -5.2200   -4.0300 ho        1 MOL      0.417801
    183 O26         0.5650   -7.6810   -1.4850 oh        1 MOL     -0.833430
    184 H88         0.5490   -8.3210   -2.1970 ho        1 MOL      0.417801
    185 H89         0.8000   -8.1930   -0.7120 ho        1 MOL      0.417801
    186 O27        -0.4250   -3.3300    1.0280 oh        1 MOL     -0.833430
    187 H90        -0.8750   -2.5080    0.8140 ho        1 MOL      0.417801
    188 H91        -0.1250   -3.2120    1.9330 ho        1 MOL      0.417801
    189 O28         1.1360   -2.7670   -2.0960 oh        1 MOL     -0.833430
    190 H92         0.9340   -2.6070   -3.0120 ho        1 MOL      0.417801
    191 H93         1.7220   -2.0540   -1.8460 ho        1 MOL      0.417801
    192 O29        -2.0870   -4.4610   -1.7040 oh        1 MOL     -0.833430
    193 H94        -2.4680   -5.1760   -2.2200 ho        1 MOL      0.417801
    194 H95        -2.7830   -4.1980   -1.1080 ho        1 MOL      0.417801
@<TRIPOS>BOND
     1    1    2 1   
     2    1    4 1   
     3    1    5 1   
     4    1    6 1   
     5    2    3 2   
     6    2    7 1   
     7    7    8 1   
     8    7   15 1   
     9    8    9 1   
    10    8   11 1   
    11    8   16 1   
    12    9   10 2   
    13    9   19 1   
    14   11   12 1   
    15   11   17 1   
    16   11   18 1   
    17   12   13 1   
    18   12   14 1   
    19   19   20 1   
    20   19   28 1   
    21   20   21 1   
    22   20   23 1   
    23   20   29 1   
    24   21   22 2   
    25   21   41 1   
    26   23   24 1   
    27   23   30 1   
    28   23   31 1   
    29   24   25 1   
    30   24   32 1   
    31   24   33 1   
    32   25   26 1   
    33   25   34 1   
    34   25   35 1   
    35   26   27 1   
    36   26   36 1   
    37   26   37 1   
    38   27   38 1   
    39   27   39 1   
    40   27   40 1   
    41   41   42 1   
    42   41   49 1   
    43   42   43 1   
    44   42   45 1   
    45   42   50 1   
    46   43   44 2   
    47   43   53 1   
    48   45   46 1   
    49   45   51 1   
    50   45   52 1   
    51   46   47 1   
    52   46   48 1   
    53   53   54 1   
    54   53   57 1   
    55   54   55 1   
    56   54   58 1   
    57   54   59 1   
    58   55   56 2   
    59   55   60 1   
    60   60   61 1   
    61   60   68 1   
    62   61   62 1   
    63   61   64 1   
    64   61   69 1   
    65   62   63 2   
    66   62   74 1   
    67   64   65 1   
    68   64   70 1   
    69   64   71 1   
    70   65   66 1   
    71   65   67 2   
    72   66   72 1   
    73   66   73 1   
    74   74   75 1   
    75   74   78 1   
    76   75   76 1   
    77   75   79 1   
    78   75   80 1   
    79   76   77 2   
    80   76   81 1   
    81   81   82 1   
    82   81   93 1   
    83   82   83 1   
    84   82   85 1   
    85   82   94 1   
    86   83   84 2   
    87   83  102 1   
    88   85   86 1   
    89   85   95 1   
    90   85   96 1   
    91   86   87 ar  
    92   86   88 ar  
    93   87   89 ar  
    94   87   97 1   
    95   88   90 ar  
    96   88   98 1   
    97   89   91 ar  
    98   89   99 1   
    99   90   91 ar  
   100   90  100 1   
   101   91   92 1   
   102   92  101 1   
   103  102  103 1   
   104  102  110 1   
   105  103  104 1   
   106  103  106 1   
   107  103  111 1   
   108  104  105 2   
   109  104  121 1   
   110  106  107 1   
   111  106  108 1   
   112  106  112 1   
   113  107  109 1   
   114  107  113 1   
   115  107  114 1   
   116  108  115 1   
   117  108  116 1   
   118  108  117 1   
   119  109  118 1   
   120  109  119 1   
   121  109  120 1   
   122  121  122 1   
   123  121  127 1   
   124  122  123 1   
   125  122  125 1   
   126  122  128 1   
   127  123  124 2   
   128  123  132 1   
   129  125  126 1   
   130  125  129 1   
   131  125  130 1   
   132  126  131 1   
   133  132  133 1   
   134  132  137 1   
   135  133  134 1   
   136  133  136 1   
   137  133  138 1   
   138  134  135 2   
   139  134  142 1   
   140  136  139 1   
   141  136  140 1   
   142  136  141 1   
   143  142  143 1   
   144  142  147 1   
   145  143  144 1   
   146  143  146 1   
   147  143  148 1   
   148  144  145 2   
   149  144  152 1   
   150  146  149 1   
   151  146  150 1   
   152  146  151 1   
   153  152  153 1   
   154  152  161 1   
   155  153  154 1   
   156  153  156 1   
   157  153  162 1   
   158  154  155 2   
   159  154  167 1   
   160  156  157 1   
   161  156  163 1   
   162  156  164 1   
   163  157  158 1   
   164  157  165 1   
   165  157  166 1   
   166  158  159 1   
   167  158  160 1   
   168  167  168 1   
   169  167  172 1   
   170  168  169 1   
   171  168  170 1   
   172  168  171 1   
   173  174  175 1   
   174  174  176 1   
   175  177  178 1   
   176  177  179 1   
   177  180  181 1   
   178  180  182 1   
   179  183  184 1   
   180  183  185 1   
   181  186  187 1   
   182  186  188 1   
   183  189  190 1   
   184  189  191 1   
   185  192  193 1   
   186  192  194 1   
@<TRIPOS>SUBSTRUCTURE
     1 MOL         1 TEMP              0 ****  ****    0 ROOT
