@<TRIPOS>MOLECULE
MOL
  191   184     1     0     0
SMALL
resp


@<TRIPOS>ATOM
      1 C1         -6.5680   -2.7970    3.5040 c3        1 MOL     -0.468953
      2 C2         -6.6720   -2.4180    2.0140 c         1 MOL      0.636114
      3 O1         -5.9890   -1.5050    1.5520 o         1 MOL     -0.580293
      4 H1         -7.5030   -3.2550    3.8280 hc        1 MOL      0.123656
      5 H2         -5.7500   -3.5040    3.6450 hc        1 MOL      0.123656
      6 H3         -6.3800   -1.9000    4.0950 hc        1 MOL      0.123656
      7 N1         -7.5920   -3.0820    1.2860 n         1 MOL     -0.628392
      8 C3         -7.7010   -3.0860   -0.2100 c3        1 MOL      0.351393
      9 C4         -7.7300   -1.6410   -0.7500 c         1 MOL      0.467388
     10 O2         -7.0430   -1.3440   -1.6970 o         1 MOL     -0.477039
     11 C5         -6.8370   -4.1290   -0.9610 c3        1 MOL     -0.280588
     12 C6         -7.3120   -4.5260   -2.3380 c         1 MOL      0.619719
     13 O3         -8.4410   -4.1110   -2.7670 o         1 MOL     -0.644314
     14 O4         -6.5030   -5.2830   -3.0480 o         1 MOL     -0.644314
     15 H4         -8.1440   -3.7300    1.8240 hn        1 MOL      0.333772
     16 H5         -8.6960   -3.5390   -0.2680 h1        1 MOL     -0.034729
     17 H6         -6.7090   -4.9820   -0.2980 hc        1 MOL      0.100536
     18 H7         -5.8470   -3.6830   -1.0950 hc        1 MOL      0.100536
     19 N2         -8.4440   -0.7250   -0.0920 n         1 MOL     -0.594111
     20 C7         -8.5420    0.6730   -0.5960 c3        1 MOL      0.290140
     21 C8         -7.2780    1.5560   -0.3850 c         1 MOL      0.301963
     22 O5         -7.4600    2.7580   -0.1020 o         1 MOL     -0.563298
     23 C9         -9.9770    1.3130   -0.2550 c3        1 MOL     -0.193965
     24 C10       -10.1510    1.3950    1.2970 c3        1 MOL      0.183566
     25 C11       -11.6270    1.6880    1.5000 c3        1 MOL     -0.016569
     26 C12       -11.9630    1.6930    3.0050 c3        1 MOL      0.005255
     27 N3        -11.5430    3.0060    3.5380 n4        1 MOL     -0.339428
     28 H8         -9.0660   -0.9680    0.6670 hn        1 MOL      0.312648
     29 H9         -8.5820    0.5910   -1.6780 h1        1 MOL      0.072143
     30 H10       -10.7410    0.5880   -0.5380 hc        1 MOL      0.058743
     31 H11        -9.9990    2.3040   -0.7090 hc        1 MOL      0.058743
     32 H12        -9.5650    2.2230    1.7000 hc        1 MOL     -0.026801
     33 H13        -9.9590    0.4260    1.7600 hc        1 MOL     -0.026801
     34 H14       -12.2860    0.8950    1.1290 hc        1 MOL      0.030438
     35 H15       -11.8870    2.5780    0.9280 hc        1 MOL      0.030438
     36 H16       -11.3900    0.9070    3.5050 hx        1 MOL      0.070035
     37 H17       -13.0100    1.4850    3.2410 hx        1 MOL      0.070035
     38 H18       -10.6190    3.3170    3.2660 hn        1 MOL      0.257364
     39 H19       -12.2170    3.6720    3.1840 hn        1 MOL      0.257364
     40 H20       -11.6800    2.9350    4.5320 hn        1 MOL      0.257364
     41 N4         -6.0840    1.0440   -0.4780 n         1 MOL     -0.125993
     42 C13        -4.8170    1.8560   -0.6000 c3        1 MOL      0.046705
     43 C14        -4.3150    2.0300   -2.0560 c         1 MOL      0.489621
     44 O6         -4.3020    1.1070   -2.8440 o         1 MOL     -0.475054
     45 C15        -3.7520    1.4990    0.4280 c3        1 MOL     -0.108456
     46 C16        -2.4930    2.3780    0.4260 c         1 MOL      0.506880
     47 O7         -1.5930    2.3430   -0.4170 o         1 MOL     -0.672821
     48 O8         -2.4230    3.3170    1.2530 o         1 MOL     -0.672821
     49 H21        -6.0120    0.0730   -0.7720 hn        1 MOL      0.201089
     50 H22        -4.9960    2.8400   -0.1810 h1        1 MOL      0.036647
     51 H23        -3.4560    0.4710    0.2220 hc        1 MOL      0.052100
     52 H24        -4.2910    1.4660    1.3790 hc        1 MOL      0.052100
     53 N5         -3.7510    3.2270   -2.3870 n         1 MOL     -0.613102
     54 C17        -3.0220    3.5000   -3.6270 c3        1 MOL      0.347509
     55 C18        -1.8840    2.6140   -4.0570 c         1 MOL      0.353889
     56 O9         -1.6690    2.5930   -5.2740 o         1 MOL     -0.537839
     57 H25        -3.7810    3.9140   -1.6510 hn        1 MOL      0.375980
     58 H26        -2.5870    4.5010   -3.5110 h1        1 MOL     -0.019811
     59 H27        -3.7160    3.6670   -4.4520 h1        1 MOL     -0.019811
     60 N6         -1.1910    1.9210   -3.1380 n         1 MOL     -0.179782
     61 C19        -0.0770    1.0560   -3.4050 c3        1 MOL     -0.100427
     62 C20        -0.4100   -0.4260   -3.3610 c         1 MOL      0.499040
     63 O10         0.4800   -1.2760   -3.1970 o         1 MOL     -0.450377
     64 C21         1.0650    1.5160   -2.4580 c3        1 MOL     -0.332349
     65 C22         1.3920    3.0460   -2.4870 c         1 MOL      0.680121
     66 N7          1.6920    3.6350   -3.6570 n         1 MOL     -0.768812
     67 O11         1.2100    3.6740   -1.4520 o         1 MOL     -0.614362
     68 H28        -1.5290    2.0840   -2.1950 hn        1 MOL      0.169575
     69 H29         0.2370    1.1760   -4.4400 h1        1 MOL      0.119911
     70 H30         1.9630    0.9740   -2.7620 hc        1 MOL      0.125405
     71 H31         0.7950    1.2200   -1.4540 hc        1 MOL      0.125405
     72 H32         1.7260    3.1800   -4.5580 hn        1 MOL      0.376597
     73 H33         2.0010    4.5950   -3.7250 hn        1 MOL      0.376597
     74 N8         -1.7080   -0.7520   -3.3440 n         1 MOL     -0.342461
     75 C23        -2.3420   -2.0650   -3.1630 c3        1 MOL     -0.182787
     76 C24        -2.0830   -2.6910   -1.7650 c         1 MOL      0.609998
     77 O12        -2.5670   -3.7660   -1.4420 o         1 MOL     -0.543354
     78 H34        -2.4000   -0.0530   -3.5630 hn        1 MOL      0.301744
     79 H35        -1.9980   -2.7850   -3.9060 h1        1 MOL      0.149870
     80 H36        -3.4230   -1.9630   -3.2430 h1        1 MOL      0.149870
     81 N9         -1.5380   -1.9050   -0.8550 n         1 MOL     -0.611419
     82 C25        -1.0680   -2.3230    0.5170 c3        1 MOL      0.292651
     83 C26         0.3960   -1.7820    0.7530 c         1 MOL      0.297954
     84 O13         0.6250   -0.6070    0.4810 o         1 MOL     -0.418600
     85 C27        -2.0810   -1.7660    1.5240 c3        1 MOL     -0.096480
     86 C28        -1.6370   -2.0790    2.9310 ca        1 MOL     -0.070390
     87 C29        -1.3900   -3.4260    3.2840 ca        1 MOL     -0.061231
     88 C30        -1.3630   -1.0540    3.8300 ca        1 MOL     -0.061231
     89 C31        -0.7850   -3.7290    4.5520 ca        1 MOL     -0.343843
     90 C32        -0.7180   -1.3180    5.0330 ca        1 MOL     -0.343843
     91 C33        -0.4550   -2.6990    5.4150 ca        1 MOL      0.435401
     92 O14         0.1450   -2.9240    6.6200 oh        1 MOL     -0.498126
     93 H37        -1.1800   -0.9990   -1.1350 hn        1 MOL      0.355694
     94 H38        -1.0880   -3.4080    0.5740 h1        1 MOL      0.034141
     95 H39        -3.0760   -2.1480    1.2910 hc        1 MOL      0.099186
     96 H40        -2.1110   -0.6960    1.3320 hc        1 MOL      0.099186
     97 H41        -1.7990   -4.2290    2.6970 ha        1 MOL      0.108838
     98 H42        -1.4220   -0.0130    3.5460 ha        1 MOL      0.108838
     99 H43        -0.5930   -4.7510    4.8690 ha        1 MOL      0.153793
    100 H44        -0.3850   -0.5020    5.6710 ha        1 MOL      0.153793
    101 H45         0.3820   -2.1070    7.0630 ho        1 MOL      0.356561
    102 N10         1.3410   -2.7060    1.1140 n         1 MOL     -0.319394
    103 C34         2.7250   -2.2680    1.2790 c3        1 MOL      0.165739
    104 C35         3.4010   -2.2530   -0.0950 c         1 MOL      0.227630
    105 O15         4.2510   -1.3820   -0.3490 o         1 MOL     -0.416244
    106 C36         3.3520   -3.2350    2.3690 c3        1 MOL      0.013851
    107 C37         2.8330   -2.9440    3.8170 c3        1 MOL      0.257061
    108 C38         4.9250   -3.3100    2.2980 c3        1 MOL     -0.387815
    109 C39         2.8390   -4.1670    4.7790 c3        1 MOL     -0.233635
    110 H46         1.0680   -3.6650    1.2610 hn        1 MOL      0.265374
    111 H47         2.7180   -1.2180    1.5860 h1        1 MOL     -0.006354
    112 H48         2.8990   -4.2250    2.2440 hc        1 MOL     -0.005649
    113 H49         1.8070   -2.5930    3.7650 hc        1 MOL     -0.065338
    114 H50         3.3730   -2.1160    4.2970 hc        1 MOL     -0.065338
    115 H51         5.2710   -2.2830    2.2720 hc        1 MOL      0.112894
    116 H52         5.3230   -3.8130    3.1860 hc        1 MOL      0.112894
    117 H53         5.2730   -3.7990    1.3890 hc        1 MOL      0.112894
    118 H54         3.8180   -4.3730    5.2070 hc        1 MOL      0.059361
    119 H55         2.3790   -3.8860    5.7240 hc        1 MOL      0.059361
    120 H56         2.3890   -5.0340    4.2990 hc        1 MOL      0.059361
    121 N11         3.0140   -3.1280   -1.0060 n         1 MOL     -0.055323
    122 C40         3.3620   -2.8950   -2.3910 c3        1 MOL     -0.179640
    123 C41         4.7930   -3.1190   -2.6690 c         1 MOL      0.374031
    124 O16         5.3000   -2.5930   -3.6220 o         1 MOL     -0.473534
    125 C42         2.5550   -3.7750   -3.3140 c3        1 MOL      0.280269
    126 O17         1.1990   -3.8690   -2.8940 oh        1 MOL     -0.574866
    127 H57         2.4110   -3.8790   -0.7090 hn        1 MOL      0.152062
    128 H58         3.1740   -1.8310   -2.5490 h1        1 MOL      0.136820
    129 H59         3.0130   -4.7640   -3.3970 h1        1 MOL      0.026974
    130 H60         2.5720   -3.3230   -4.3060 h1        1 MOL      0.026974
    131 H61         0.9250   -2.9460   -2.8170 ho        1 MOL      0.295003
    132 N12         5.5320   -3.8740   -1.8130 n         1 MOL     -0.334357
    133 C43         6.9690   -4.1170   -1.7640 c3        1 MOL      0.465662
    134 C44         7.7810   -2.8350   -1.7530 c         1 MOL      0.210353
    135 O18         8.8900   -2.9230   -2.2830 o         1 MOL     -0.497843
    136 C45         7.3110   -5.1480   -2.7710 c3        1 MOL     -0.495769
    137 H62         5.0490   -4.3900   -1.1020 hn        1 MOL      0.185992
    138 H63         7.1270   -4.5650   -0.7750 h1        1 MOL     -0.021296
    139 H64         7.3510   -4.6110   -3.7140 hc        1 MOL      0.127643
    140 H65         8.3220   -5.4890   -2.5520 hc        1 MOL      0.127643
    141 H66         6.5460   -5.9180   -2.6760 hc        1 MOL      0.127643
    142 N13         7.2810   -1.6560   -1.4020 n         1 MOL     -0.156504
    143 C46         8.0170   -0.3750   -1.4000 c3        1 MOL      0.196587
    144 C47         8.2080    0.2110    0.0450 c         1 MOL      0.482181
    145 O19         7.6110   -0.3190    1.0140 o         1 MOL     -0.457545
    146 C48         7.1150    0.5460   -2.2370 c3        1 MOL     -0.054350
    147 H67         6.3590   -1.6320   -0.9810 hn        1 MOL      0.063269
    148 H68         8.9560   -0.5480   -1.9230 h1        1 MOL      0.023510
    149 H69         7.6130    1.4670   -2.5380 hc        1 MOL      0.030602
    150 H70         6.5890    0.1160   -3.0890 hc        1 MOL      0.030602
    151 H71         6.2660    0.8080   -1.6030 hc        1 MOL      0.030602
    152 N14         9.1030    1.2260    0.1870 n         1 MOL     -0.705410
    153 C49         9.1400    2.0690    1.4830 c3        1 MOL      0.047095
    154 C50         9.5830    1.3170    2.6910 c         1 MOL      0.466492
    155 O20         9.3000    1.7260    3.8610 o         1 MOL     -0.527730
    156 C51         7.8380    2.8080    1.7630 c3        1 MOL     -0.033970
    157 C52         7.3840    3.5520    0.4540 c3        1 MOL     -0.221026
    158 C53         8.4570    4.3790   -0.1520 c         1 MOL      0.692788
    159 O21         8.7440    4.1230   -1.3350 o         1 MOL     -0.671044
    160 O22         9.0970    5.2850    0.4430 o         1 MOL     -0.671044
    161 H72         9.5350    1.6340   -0.6260 hn        1 MOL      0.396422
    162 H73         9.9680    2.7790    1.3930 h1        1 MOL      0.126827
    163 H74         7.9670    3.5750    2.5320 hc        1 MOL      0.044326
    164 H75         7.0610    2.1160    2.0470 hc        1 MOL      0.044326
    165 H76         6.5680    4.2030    0.7850 hc        1 MOL      0.026125
    166 H77         6.9770    2.9130   -0.3210 hc        1 MOL      0.026125
    167 N15        10.1400    0.1210    2.4990 n         1 MOL     -0.345410
    168 C54        10.1600   -0.9550    3.4890 c3        1 MOL     -0.187873
    169 H78         9.1630   -1.0790    3.9110 h1        1 MOL      0.098615
    170 H79        10.4700   -1.8840    3.0110 h1        1 MOL      0.098615
    171 H80        10.8620   -0.7040    4.2850 h1        1 MOL      0.098615
    172 H81        10.1580   -0.1970    1.5370 hn        1 MOL      0.281532
    173 Ca1        -0.0820    4.3400    0.7000 Ca        1 MOL      1.830144
    174 O23         2.3720    5.0250    1.9760 oh        1 MOL     -0.864943
    175 H82         2.8170    5.8620    2.1220 ho        1 MOL      0.428408
    176 H83         2.8650    4.3960    2.5070 ho        1 MOL      0.428408
    177 O24        -1.0220    6.5990    2.0540 oh        1 MOL     -0.864943
    178 H84        -1.2380    6.6340    2.9930 ho        1 MOL      0.428408
    179 H85        -0.8510    7.5070    1.8180 ho        1 MOL      0.428408
    180 O25         1.0790    6.4720   -0.3610 oh        1 MOL     -0.864943
    181 H86         1.9960    6.7360   -0.2450 ho        1 MOL      0.428408
    182 H87         0.6390    7.2700   -0.6880 ho        1 MOL      0.428408
    183 O26        -1.9610    5.7640   -1.0240 oh        1 MOL     -0.864943
    184 H88        -1.4160    5.8960   -1.7970 ho        1 MOL      0.428408
    185 H89        -2.6980    6.3710   -1.1540 ho        1 MOL      0.428408
    186 O27         1.1550    1.9710    1.0670 oh        1 MOL     -0.864943
    187 H90         1.1060    1.0390    0.8470 ho        1 MOL      0.428408
    188 H91         1.9910    2.0630    1.5080 ho        1 MOL      0.428408
    189 O28        -0.2830    3.6840    3.4560 oh        1 MOL     -0.864943
    190 H92         0.1360    2.9120    3.8220 ho        1 MOL      0.428408
    191 H93        -0.9400    3.9380    4.0970 ho        1 MOL      0.428408
@<TRIPOS>BOND
     1    1    2 1   
     2    1    4 1   
     3    1    5 1   
     4    1    6 1   
     5    2    3 2   
     6    2    7 1   
     7    7    8 1   
     8    7   15 1   
     9    8    9 1   
    10    8   11 1   
    11    8   16 1   
    12    9   10 2   
    13    9   19 1   
    14   11   12 1   
    15   11   17 1   
    16   11   18 1   
    17   12   13 1   
    18   12   14 1   
    19   19   20 1   
    20   19   28 1   
    21   20   21 1   
    22   20   23 1   
    23   20   29 1   
    24   21   22 2   
    25   21   41 1   
    26   23   24 1   
    27   23   30 1   
    28   23   31 1   
    29   24   25 1   
    30   24   32 1   
    31   24   33 1   
    32   25   26 1   
    33   25   34 1   
    34   25   35 1   
    35   26   27 1   
    36   26   36 1   
    37   26   37 1   
    38   27   38 1   
    39   27   39 1   
    40   27   40 1   
    41   41   42 1   
    42   41   49 1   
    43   42   43 1   
    44   42   45 1   
    45   42   50 1   
    46   43   44 2   
    47   43   53 1   
    48   45   46 1   
    49   45   51 1   
    50   45   52 1   
    51   46   47 1   
    52   46   48 1   
    53   53   54 1   
    54   53   57 1   
    55   54   55 1   
    56   54   58 1   
    57   54   59 1   
    58   55   56 2   
    59   55   60 1   
    60   60   61 1   
    61   60   68 1   
    62   61   62 1   
    63   61   64 1   
    64   61   69 1   
    65   62   63 2   
    66   62   74 1   
    67   64   65 1   
    68   64   70 1   
    69   64   71 1   
    70   65   66 1   
    71   65   67 2   
    72   66   72 1   
    73   66   73 1   
    74   74   75 1   
    75   74   78 1   
    76   75   76 1   
    77   75   79 1   
    78   75   80 1   
    79   76   77 2   
    80   76   81 1   
    81   81   82 1   
    82   81   93 1   
    83   82   83 1   
    84   82   85 1   
    85   82   94 1   
    86   83   84 2   
    87   83  102 1   
    88   85   86 1   
    89   85   95 1   
    90   85   96 1   
    91   86   87 ar  
    92   86   88 ar  
    93   87   89 ar  
    94   87   97 1   
    95   88   90 ar  
    96   88   98 1   
    97   89   91 ar  
    98   89   99 1   
    99   90   91 ar  
   100   90  100 1   
   101   91   92 1   
   102   92  101 1   
   103  102  103 1   
   104  102  110 1   
   105  103  104 1   
   106  103  106 1   
   107  103  111 1   
   108  104  105 2   
   109  104  121 1   
   110  106  107 1   
   111  106  108 1   
   112  106  112 1   
   113  107  109 1   
   114  107  113 1   
   115  107  114 1   
   116  108  115 1   
   117  108  116 1   
   118  108  117 1   
   119  109  118 1   
   120  109  119 1   
   121  109  120 1   
   122  121  122 1   
   123  121  127 1   
   124  122  123 1   
   125  122  125 1   
   126  122  128 1   
   127  123  124 2   
   128  123  132 1   
   129  125  126 1   
   130  125  129 1   
   131  125  130 1   
   132  126  131 1   
   133  132  133 1   
   134  132  137 1   
   135  133  134 1   
   136  133  136 1   
   137  133  138 1   
   138  134  135 2   
   139  134  142 1   
   140  136  139 1   
   141  136  140 1   
   142  136  141 1   
   143  142  143 1   
   144  142  147 1   
   145  143  144 1   
   146  143  146 1   
   147  143  148 1   
   148  144  145 2   
   149  144  152 1   
   150  146  149 1   
   151  146  150 1   
   152  146  151 1   
   153  152  153 1   
   154  152  161 1   
   155  153  154 1   
   156  153  156 1   
   157  153  162 1   
   158  154  155 2   
   159  154  167 1   
   160  156  157 1   
   161  156  163 1   
   162  156  164 1   
   163  157  158 1   
   164  157  165 1   
   165  157  166 1   
   166  158  159 1   
   167  158  160 1   
   168  167  168 1   
   169  167  172 1   
   170  168  169 1   
   171  168  170 1   
   172  168  171 1   
   173  174  175 1   
   174  174  176 1   
   175  177  178 1   
   176  177  179 1   
   177  180  181 1   
   178  180  182 1   
   179  183  184 1   
   180  183  185 1   
   181  186  187 1   
   182  186  188 1   
   183  189  190 1   
   184  189  191 1   
@<TRIPOS>SUBSTRUCTURE
     1 MOL         1 TEMP              0 ****  ****    0 ROOT
