@<TRIPOS>MOLECULE
MOL
  181   177     1     0     0
SMALL
resp


@<TRIPOS>ATOM
      1 C1          3.2220   -2.1100    3.7630 c3        1 MOL     -0.287993
      2 C2          4.2830   -1.1030    3.2720 c         1 MOL      0.624835
      3 O1          4.2840   -0.7280    2.1210 o         1 MOL     -0.512663
      4 H1          2.5590   -1.6190    4.4750 hc        1 MOL      0.074827
      5 H2          2.6400   -2.4690    2.9140 hc        1 MOL      0.074827
      6 H3          3.7160   -2.9530    4.2470 hc        1 MOL      0.074827
      7 N1          5.2310   -0.7030    4.1700 n         1 MOL     -0.587997
      8 C3          6.3920    0.2260    3.9580 c3        1 MOL      0.258508
      9 C4          7.1540   -0.2030    2.7100 c         1 MOL      0.526153
     10 O2          7.4960    0.4820    1.7550 o         1 MOL     -0.485436
     11 C5          7.3810    0.2320    5.1790 c3        1 MOL     -0.182582
     12 C6          8.6060    1.1940    4.9620 c         1 MOL      0.711601
     13 O3          8.3770    2.2700    4.3320 o         1 MOL     -0.712477
     14 O4          9.6750    0.7560    5.4360 o         1 MOL     -0.712477
     15 H4          5.1440   -1.0680    5.1110 hn        1 MOL      0.270767
     16 H5          5.9760    1.2180    3.7730 h1        1 MOL      0.024071
     17 H6          7.7570   -0.7790    5.3420 hc        1 MOL     -0.006367
     18 H7          6.7720    0.4940    6.0380 hc        1 MOL     -0.006367
     19 N2          7.5540   -1.4770    2.7710 n         1 MOL     -0.493845
     20 C7          8.3550   -2.2270    1.7350 c3        1 MOL      0.400525
     21 C8          7.7220   -2.1670    0.3040 c         1 MOL      0.283664
     22 O5          8.4600   -2.0970   -0.7040 o         1 MOL     -0.515055
     23 C9          9.8300   -1.9550    1.9760 c3        1 MOL     -0.441547
     24 H8          7.4430   -1.9260    3.6630 hn        1 MOL      0.232540
     25 H9          8.2430   -3.2530    2.0670 h1        1 MOL     -0.009887
     26 H10        10.5350   -2.6430    1.5040 hc        1 MOL      0.116722
     27 H11        10.1310   -0.9200    1.8700 hc        1 MOL      0.116722
     28 H12        10.0150   -2.0940    3.0490 hc        1 MOL      0.116722
     29 N3          6.4260   -2.1770    0.1120 n         1 MOL     -0.385910
     30 C10         5.7320   -2.0110   -1.1720 c3        1 MOL      0.216188
     31 C11         5.9130   -0.7390   -1.8960 c         1 MOL      0.350478
     32 O6          5.8550   -0.6520   -3.1240 o         1 MOL     -0.530963
     33 C12         5.6320   -3.2610   -2.0180 c3        1 MOL      0.010598
     34 C13         4.3960   -3.4120   -2.8760 c         1 MOL      0.725907
     35 O7          4.5790   -4.0140   -3.9770 o         1 MOL     -0.761000
     36 O8          3.2810   -3.0420   -2.4670 o         1 MOL     -0.761000
     37 H13         5.8140   -2.4000    0.8970 hn        1 MOL      0.237701
     38 H14         4.7070   -1.8500   -0.8240 h1        1 MOL      0.007116
     39 H15         5.5390   -4.1230   -1.3560 hc        1 MOL     -0.003365
     40 H16         6.5690   -3.4010   -2.5700 hc        1 MOL     -0.003365
     41 N4          6.1310    0.3460   -1.1140 n         1 MOL      0.134475
     42 C14         6.4140    1.6730   -1.6020 c3        1 MOL     -0.209816
     43 C15         5.2790    2.4260   -2.3250 c         1 MOL      0.587925
     44 O9          5.5710    3.3050   -3.1470 o         1 MOL     -0.561690
     45 H17         6.1610    0.1760   -0.1210 hn        1 MOL      0.009296
     46 H18         7.3510    1.5330   -2.1540 h1        1 MOL      0.091121
     47 H19         6.6720    2.2400   -0.7150 h1        1 MOL      0.091121
     48 N5          4.0080    2.0220   -2.0570 n         1 MOL     -0.440317
     49 C16         2.7870    2.7350   -2.4600 c3        1 MOL      0.187514
     50 C17         2.3470    3.8110   -1.4920 c         1 MOL      0.576121
     51 O10         2.6100    3.7090   -0.2810 o         1 MOL     -0.553381
     52 C18         1.6660    1.7460   -2.7030 c3        1 MOL     -0.479570
     53 C19         1.9510    0.6080   -3.6910 c         1 MOL      0.757734
     54 N6          2.5530    0.8980   -4.8640 n         1 MOL     -0.756848
     55 O11         1.7360   -0.5500   -3.3970 o         1 MOL     -0.546505
     56 H20         3.8010    1.2660   -1.4200 hn        1 MOL      0.249920
     57 H21         3.1030    3.2690   -3.3640 h1        1 MOL     -0.011024
     58 H22         0.8110    2.3420   -3.0120 hc        1 MOL      0.159491
     59 H23         1.3170    1.2920   -1.7740 hc        1 MOL      0.159491
     60 H24         2.7210    1.8610   -5.1250 hn        1 MOL      0.340145
     61 H25         2.8370    0.1620   -5.4970 hn        1 MOL      0.340145
     62 N7          1.6080    4.7570   -1.9940 n         1 MOL     -0.398844
     63 C20         1.3280    5.9920   -1.3730 c3        1 MOL     -0.058394
     64 C21        -0.0890    6.5550   -1.8310 c         1 MOL      0.521844
     65 O12        -0.6650    6.0910   -2.8560 o         1 MOL     -0.492712
     66 H26         1.2990    4.7200   -2.9570 hn        1 MOL      0.260354
     67 H27         2.0300    6.7420   -1.7300 h1        1 MOL      0.076657
     68 H28         1.4310    5.9770   -0.2920 h1        1 MOL      0.076657
     69 N8         -0.6460    7.3500   -0.9560 n         1 MOL     -0.559886
     70 C22        -2.1090    7.6010   -1.0100 c3        1 MOL      0.031500
     71 C23        -2.8880    6.3300   -0.6690 c         1 MOL      0.478557
     72 O13        -3.8210    6.0140   -1.3510 o         1 MOL     -0.529784
     73 C24        -2.5860    8.8210   -0.2710 c3        1 MOL      0.247043
     74 C25        -4.0420    9.1580   -0.1390 c3        1 MOL     -0.336830
     75 O14        -2.0530    8.6670    1.0900 oh        1 MOL     -0.646741
     76 H29        -0.2520    7.6110   -0.0580 hn        1 MOL      0.314782
     77 H30        -2.3350    7.8190   -2.0460 h1        1 MOL      0.099841
     78 H31        -2.1810    9.7350   -0.7200 h1        1 MOL      0.033853
     79 H32        -2.2420    9.5120    1.5090 ho        1 MOL      0.408722
     80 H33        -4.4550    8.3990    0.5410 hc        1 MOL      0.095918
     81 H34        -4.0680   10.1480    0.3190 hc        1 MOL      0.095918
     82 H35        -4.5990    9.0810   -1.0660 hc        1 MOL      0.095918
     83 N9         -2.5090    5.6630    0.3920 n         1 MOL     -0.213727
     84 C26        -2.9450    4.2930    0.8450 c3        1 MOL     -0.059856
     85 C27        -2.4290    3.0690    0.0210 c         1 MOL      0.447714
     86 O15        -1.8720    3.2150   -1.0810 o         1 MOL     -0.462904
     87 C28        -2.6290    4.2280    2.3420 c3        1 MOL      0.029695
     88 C29        -1.1900    4.5300    2.8390 c3        1 MOL     -0.479566
     89 C30        -3.5820    5.3190    2.9970 c3        1 MOL     -0.260702
     90 C31        -0.0720    3.6520    2.1840 c3        1 MOL      0.066187
     91 H36        -1.8510    6.1720    0.9710 hn        1 MOL      0.282551
     92 H37        -4.0170    4.2270    0.7160 h1        1 MOL      0.077229
     93 H38        -2.9350    3.2770    2.8000 hc        1 MOL      0.088094
     94 H39        -1.2160    4.2780    3.9000 hc        1 MOL      0.147817
     95 H40        -0.9480    5.5700    2.6550 hc        1 MOL      0.147817
     96 H41        -4.5500    5.2810    2.5080 hc        1 MOL      0.062286
     97 H42        -3.7290    5.1430    4.0630 hc        1 MOL      0.062286
     98 H43        -3.2460    6.3620    2.9170 hc        1 MOL      0.062286
     99 H44        -0.2830    2.6140    2.4270 hc        1 MOL      0.033998
    100 H45        -0.0070    3.7060    1.0960 hc        1 MOL      0.033998
    101 H46         0.8610    3.8490    2.7100 hc        1 MOL      0.033998
    102 N10        -2.6580    1.9190    0.5320 n         1 MOL     -0.425778
    103 C32        -2.3120    0.6720   -0.1550 c3        1 MOL      0.243617
    104 C33        -3.5080   -0.3140   -0.0500 c         1 MOL      0.470696
    105 O16        -3.3290   -1.4870    0.2580 o         1 MOL     -0.479405
    106 C34        -0.9240    0.0810    0.2710 c3        1 MOL     -0.003384
    107 C35        -0.4410   -1.0670   -0.6520 c         1 MOL      0.529234
    108 O17         0.6480   -1.6530   -0.4440 o         1 MOL     -0.678526
    109 O18        -1.0640   -1.2890   -1.7320 o         1 MOL     -0.678526
    110 H47        -3.1860    1.8740    1.3970 hn        1 MOL      0.221893
    111 H48        -2.1390    0.8380   -1.2110 h1        1 MOL     -0.011405
    112 H49        -1.1590   -0.2810    1.2790 hc        1 MOL      0.006814
    113 H50        -0.1500    0.8480    0.3280 hc        1 MOL      0.006814
    114 N11        -4.6830    0.2060   -0.2630 n         1 MOL     -0.518014
    115 C36        -6.0790   -0.3300   -0.0940 c3        1 MOL      0.409459
    116 C37        -6.1890   -1.4110    0.9980 c         1 MOL      0.257115
    117 O19        -5.8090   -1.2040    2.1810 o         1 MOL     -0.529798
    118 C38        -6.9790    0.8250    0.1040 c3        1 MOL     -0.569538
    119 C39        -8.4170    0.3450    0.1500 ca        1 MOL      0.333572
    120 C40        -9.1170    0.1560   -1.0550 ca        1 MOL     -0.298356
    121 C41        -9.0450   -0.0290    1.3260 ca        1 MOL     -0.298356
    122 C42       -10.4280   -0.3710   -1.0430 ca        1 MOL     -0.042863
    123 C43       -10.3470   -0.6020    1.3600 ca        1 MOL     -0.042863
    124 C44       -11.0650   -0.7480    0.1360 ca        1 MOL     -0.174379
    125 H51        -4.6340    1.1300   -0.6570 hn        1 MOL      0.288452
    126 H52        -6.2690   -0.7400   -1.0800 h1        1 MOL     -0.025243
    127 H53        -6.7350    1.4880   -0.7310 hc        1 MOL      0.168760
    128 H54        -6.8220    1.2160    1.1090 hc        1 MOL      0.168760
    129 H55        -8.7230    0.4100   -2.0320 ha        1 MOL      0.152821
    130 H56        -8.4770    0.0710    2.2360 ha        1 MOL      0.152821
    131 H57       -10.9050   -0.3640   -2.0200 ha        1 MOL      0.099462
    132 H58       -10.9090   -0.8140    2.2610 ha        1 MOL      0.099462
    133 H59       -12.0550   -1.1790    0.0900 ha        1 MOL      0.116014
    134 N12        -6.5580   -2.6350    0.5890 n         1 MOL      0.178302
    135 C45        -6.8120   -3.7270    1.5230 c3        1 MOL     -0.003986
    136 C46        -5.6260   -4.3380    2.2560 c         1 MOL      0.465065
    137 O20        -5.7050   -4.8120    3.3900 o         1 MOL     -0.533147
    138 C47        -7.5950   -4.7790    0.7520 c3        1 MOL     -0.257525
    139 C48        -7.1350   -4.5190   -0.7200 c3        1 MOL     -0.023321
    140 C49        -6.8800   -3.0360   -0.7380 c3        1 MOL     -0.086650
    141 H60        -7.4140   -3.3700    2.3580 h1        1 MOL      0.055280
    142 H61        -7.1430   -5.7420    1.0080 hc        1 MOL      0.094114
    143 H62        -8.6750   -4.6730    0.8810 hc        1 MOL      0.094114
    144 H63        -6.1570   -4.9710   -0.9180 hc        1 MOL      0.039656
    145 H64        -7.8540   -4.7650   -1.4950 hc        1 MOL      0.039656
    146 H65        -5.9720   -2.7620   -1.2860 h1        1 MOL      0.036789
    147 H66        -7.7980   -2.5230   -1.0180 h1        1 MOL      0.036789
    148 N13        -4.4050   -4.0970    1.7240 n         1 MOL     -0.359303
    149 C50        -3.1240   -4.4790    2.4000 c3        1 MOL     -0.061709
    150 C51        -2.7540   -3.5230    3.5920 c         1 MOL      0.456076
    151 O21        -2.2220   -3.9540    4.6290 o         1 MOL     -0.537078
    152 C52        -2.0030   -4.4930    1.4550 c3        1 MOL     -0.002235
    153 C53        -2.2030   -5.4220    0.2480 c3        1 MOL     -0.188914
    154 C54        -0.9900   -5.6010   -0.6650 c         1 MOL      0.841852
    155 O22        -0.7340   -6.7010   -1.1200 o         1 MOL     -0.759417
    156 O23        -0.2960   -4.5570   -1.0010 o         1 MOL     -0.759417
    157 H67        -4.3820   -3.6020    0.8400 hn        1 MOL      0.255843
    158 H68        -3.2570   -5.4470    2.8860 h1        1 MOL      0.112106
    159 H69        -1.1840   -4.8780    2.0560 hc        1 MOL      0.041927
    160 H70        -1.7530   -3.4730    1.1610 hc        1 MOL      0.041927
    161 H71        -3.0450   -5.0700   -0.3630 hc        1 MOL      0.024492
    162 H72        -2.5040   -6.3820    0.6570 hc        1 MOL      0.024492
    163 N14        -3.1350   -2.2120    3.4680 n         1 MOL     -0.188541
    164 C55        -2.9600   -1.2240    4.5380 c3        1 MOL     -0.197376
    165 H73        -2.5070   -1.7050    5.4050 h1        1 MOL      0.079886
    166 H74        -2.3100   -0.4210    4.1890 h1        1 MOL      0.079886
    167 H75        -3.9300   -0.8120    4.8160 h1        1 MOL      0.079886
    168 H76        -3.6310   -1.8470    2.6720 hn        1 MOL      0.261447
    169 Ca1         0.6770   -2.9590   -2.8540 Ca        1 MOL      1.780883
    170 O24        -0.1470   -1.7400   -5.3030 oh        1 MOL     -0.873350
    171 H77        -0.5970   -2.4950   -5.6660 ho        1 MOL      0.411037
    172 H78         0.2010   -1.2820   -6.0560 ho        1 MOL      0.411037
    173 O25         0.7550   -5.7560   -3.3090 oh        1 MOL     -0.873350
    174 H79         1.4910   -6.3800   -3.3330 ho        1 MOL      0.411037
    175 H80         0.1620   -6.1050   -2.6400 ho        1 MOL      0.411037
    176 O26         2.2260   -3.2910   -4.9150 oh        1 MOL     -0.873350
    177 H81         2.4980   -2.9940   -5.7860 ho        1 MOL      0.411037
    178 H82         3.0500   -3.4880   -4.4660 ho        1 MOL      0.411037
    179 O27        -1.7360   -4.1480   -3.8850 oh        1 MOL     -0.873350
    180 H83        -2.1340   -4.9880   -3.6620 ho        1 MOL      0.411037
    181 H84        -2.1670   -3.8940   -4.7010 ho        1 MOL      0.411037
@<TRIPOS>BOND
     1    1    2 1   
     2    1    4 1   
     3    1    5 1   
     4    1    6 1   
     5    2    3 2   
     6    2    7 1   
     7    7    8 1   
     8    7   15 1   
     9    8    9 1   
    10    8   11 1   
    11    8   16 1   
    12    9   10 2   
    13    9   19 1   
    14   11   12 1   
    15   11   17 1   
    16   11   18 1   
    17   12   13 1   
    18   12   14 1   
    19   19   20 1   
    20   19   24 1   
    21   20   21 1   
    22   20   23 1   
    23   20   25 1   
    24   21   22 2   
    25   21   29 1   
    26   23   26 1   
    27   23   27 1   
    28   23   28 1   
    29   29   30 1   
    30   29   37 1   
    31   30   31 1   
    32   30   33 1   
    33   30   38 1   
    34   31   32 2   
    35   31   41 1   
    36   33   34 1   
    37   33   39 1   
    38   33   40 1   
    39   34   35 1   
    40   34   36 1   
    41   41   42 1   
    42   41   45 1   
    43   42   43 1   
    44   42   46 1   
    45   42   47 1   
    46   43   44 2   
    47   43   48 1   
    48   48   49 1   
    49   48   56 1   
    50   49   50 1   
    51   49   52 1   
    52   49   57 1   
    53   50   51 2   
    54   50   62 1   
    55   52   53 1   
    56   52   58 1   
    57   52   59 1   
    58   53   54 1   
    59   53   55 2   
    60   54   60 1   
    61   54   61 1   
    62   62   63 1   
    63   62   66 1   
    64   63   64 1   
    65   63   67 1   
    66   63   68 1   
    67   64   65 2   
    68   64   69 1   
    69   69   70 1   
    70   69   76 1   
    71   70   71 1   
    72   70   73 1   
    73   70   77 1   
    74   71   72 2   
    75   71   83 1   
    76   73   74 1   
    77   73   75 1   
    78   73   78 1   
    79   74   80 1   
    80   74   81 1   
    81   74   82 1   
    82   75   79 1   
    83   83   84 1   
    84   83   91 1   
    85   84   85 1   
    86   84   87 1   
    87   84   92 1   
    88   85   86 2   
    89   85  102 1   
    90   87   88 1   
    91   87   89 1   
    92   87   93 1   
    93   88   90 1   
    94   88   94 1   
    95   88   95 1   
    96   89   96 1   
    97   89   97 1   
    98   89   98 1   
    99   90   99 1   
   100   90  100 1   
   101   90  101 1   
   102  102  103 1   
   103  102  110 1   
   104  103  104 1   
   105  103  106 1   
   106  103  111 1   
   107  104  105 2   
   108  104  114 1   
   109  106  107 1   
   110  106  112 1   
   111  106  113 1   
   112  107  108 1   
   113  107  109 1   
   114  114  115 1   
   115  114  125 1   
   116  115  116 1   
   117  115  118 1   
   118  115  126 1   
   119  116  117 2   
   120  116  134 1   
   121  118  119 1   
   122  118  127 1   
   123  118  128 1   
   124  119  120 ar  
   125  119  121 ar  
   126  120  122 ar  
   127  120  129 1   
   128  121  123 ar  
   129  121  130 1   
   130  122  124 ar  
   131  122  131 1   
   132  123  124 ar  
   133  123  132 1   
   134  124  133 1   
   135  134  135 1   
   136  134  140 1   
   137  135  136 1   
   138  135  138 1   
   139  135  141 1   
   140  136  137 2   
   141  136  148 1   
   142  138  139 1   
   143  138  142 1   
   144  138  143 1   
   145  139  140 1   
   146  139  144 1   
   147  139  145 1   
   148  140  146 1   
   149  140  147 1   
   150  148  149 1   
   151  148  157 1   
   152  149  150 1   
   153  149  152 1   
   154  149  158 1   
   155  150  151 2   
   156  150  163 1   
   157  152  153 1   
   158  152  159 1   
   159  152  160 1   
   160  153  154 1   
   161  153  161 1   
   162  153  162 1   
   163  154  155 1   
   164  154  156 1   
   165  163  164 1   
   166  163  168 1   
   167  164  165 1   
   168  164  166 1   
   169  164  167 1   
   170  170  171 1   
   171  170  172 1   
   172  173  174 1   
   173  173  175 1   
   174  176  177 1   
   175  176  178 1   
   176  179  180 1   
   177  179  181 1   
@<TRIPOS>SUBSTRUCTURE
     1 MOL         1 TEMP              0 ****  ****    0 ROOT
