@<TRIPOS>MOLECULE
MOL
  178   175     1     0     0
SMALL
resp


@<TRIPOS>ATOM
      1 C1          1.4320    6.8860   -1.7900 c3        1 MOL     -0.436187
      2 C2          2.7910    6.5640   -1.1410 c         1 MOL      0.701986
      3 O1          2.9160    6.9400    0.0110 o         1 MOL     -0.577784
      4 H1          1.1790    7.9300   -1.6040 hc        1 MOL      0.107700
      5 H2          1.4930    6.7140   -2.8650 hc        1 MOL      0.107700
      6 H3          0.6630    6.2450   -1.3610 hc        1 MOL      0.107700
      7 N1          3.7960    6.0030   -1.8630 n         1 MOL     -0.639158
      8 C3          5.1460    5.7730   -1.3580 c3        1 MOL      0.344391
      9 C4          5.2840    4.4860   -0.4120 c         1 MOL      0.433046
     10 O2          5.6640    3.4100   -0.8900 o         1 MOL     -0.486703
     11 C5          6.0970    5.6770   -2.5640 c3        1 MOL     -0.268194
     12 C6          7.5390    5.7050   -2.1090 c         1 MOL      0.846029
     13 O3          8.3240    6.1460   -2.9210 o         1 MOL     -0.761071
     14 O4          7.9200    5.4030   -0.9800 o         1 MOL     -0.761071
     15 H4          3.6550    5.7050   -2.8140 hn        1 MOL      0.325650
     16 H5          5.5240    6.5850   -0.7400 h1        1 MOL      0.017559
     17 H6          5.8700    6.5100   -3.2270 hc        1 MOL      0.003659
     18 H7          5.8980    4.7190   -3.0310 hc        1 MOL      0.003659
     19 N2          4.8590    4.5570    0.8340 n         1 MOL     -0.692216
     20 C7          5.0230    3.5540    1.9000 c3        1 MOL      0.858138
     21 C8          3.7450    3.4450    2.8140 c         1 MOL      0.243800
     22 O5          2.9310    4.3090    2.9610 o         1 MOL     -0.498915
     23 C9          6.2820    3.8820    2.6300 c3        1 MOL     -0.395377
     24 H8          4.3290    5.3750    1.1020 hn        1 MOL      0.273683
     25 H9          5.1800    2.6230    1.3540 h1        1 MOL     -0.142611
     26 H10         7.0880    4.0960    1.9310 hc        1 MOL      0.077816
     27 H11         6.0590    4.7240    3.2880 hc        1 MOL      0.077816
     28 H12         6.5760    3.0130    3.2170 hc        1 MOL      0.077816
     29 N3          3.5680    2.3780    3.5610 n         1 MOL     -0.297694
     30 C10         4.3530    1.1960    3.5660 c3        1 MOL     -0.106835
     31 C11         4.4510    0.4210    2.2850 c         1 MOL      0.416487
     32 O6          3.4970    0.3410    1.5000 o         1 MOL     -0.431087
     33 C12         3.8690    0.2610    4.6630 c3        1 MOL     -0.255504
     34 C13         2.4340   -0.2710    4.6000 c         1 MOL      0.622231
     35 O7          1.6890    0.0370    3.6180 o         1 MOL     -0.653366
     36 O8          1.9500   -1.0270    5.5050 o         1 MOL     -0.653366
     37 H13         2.6540    2.3200    3.9800 hn        1 MOL      0.295652
     38 H14         5.3910    1.4240    3.7820 h1        1 MOL      0.060089
     39 H15         3.9590    0.7100    5.6540 hc        1 MOL      0.070326
     40 H16         4.5180   -0.6160    4.7130 hc        1 MOL      0.070326
     41 N4          5.5830   -0.2690    2.1300 n         1 MOL     -0.287644
     42 C14         5.8490   -1.2150    1.0800 c3        1 MOL     -0.186004
     43 C15         6.3670   -0.5860   -0.2610 c         1 MOL      0.685569
     44 O9          6.9020    0.5310   -0.2080 o         1 MOL     -0.493289
     45 H17         6.3850   -0.1390    2.7240 hn        1 MOL      0.281054
     46 H18         4.9250   -1.7050    0.7550 h1        1 MOL      0.099630
     47 H19         6.4980   -1.9920    1.4740 h1        1 MOL      0.099630
     48 N5          6.4730   -1.2450   -1.3870 n         1 MOL     -0.725847
     49 C16         6.3090   -2.6740   -1.5750 c3        1 MOL      0.539743
     50 C17         4.8680   -3.1130   -2.0650 c         1 MOL      0.406281
     51 O10         4.0370   -2.2070   -2.1980 o         1 MOL     -0.459514
     52 C18         7.4700   -3.2210   -2.4590 c3        1 MOL     -0.329967
     53 C19         7.8190   -4.7080   -2.3200 c         1 MOL      0.692996
     54 N6          8.4930   -5.2830   -3.2250 n         1 MOL     -0.751866
     55 O11         7.4500   -5.3250   -1.3510 o         1 MOL     -0.565642
     56 H20         6.8370   -0.7270   -2.1710 hn        1 MOL      0.355626
     57 H21         6.4610   -3.1110   -0.5850 h1        1 MOL     -0.103255
     58 H22         8.3450   -2.6420   -2.1510 hc        1 MOL      0.087358
     59 H23         7.2860   -3.0140   -3.5080 hc        1 MOL      0.087358
     60 H24         8.6890   -4.8170   -4.1000 hn        1 MOL      0.354636
     61 H25         8.5750   -6.2930   -3.2540 hn        1 MOL      0.354636
     62 N7          4.5130   -4.3590   -2.2680 n         1 MOL     -0.419996
     63 C20         3.4030   -4.8310   -3.0750 c3        1 MOL     -0.255032
     64 C21         2.1170   -4.8330   -2.4350 c         1 MOL      0.581189
     65 O12         1.1290   -4.5970   -3.0690 o         1 MOL     -0.542121
     66 H26         5.0600   -5.0630   -1.7990 hn        1 MOL      0.266199
     67 H27         3.6600   -5.8680   -3.2890 h1        1 MOL      0.142619
     68 H28         3.4030   -4.2550   -4.0020 h1        1 MOL      0.142619
     69 N8          2.1270   -5.1070   -1.1310 n         1 MOL     -0.213494
     70 C22         0.8700   -5.3250   -0.3740 c3        1 MOL     -0.328388
     71 C23        -0.0500   -4.0980   -0.4740 c         1 MOL      0.470743
     72 O13         0.3570   -2.9550   -0.2500 o         1 MOL     -0.566798
     73 C24         0.9590   -5.7850    1.0850 c3        1 MOL      0.507343
     74 C25        -0.3260   -6.3070    1.7310 c3        1 MOL     -0.443103
     75 O14         1.7470   -6.9640    1.1000 oh        1 MOL     -0.639223
     76 H29         3.0100   -5.2490   -0.6540 hn        1 MOL      0.221394
     77 H30         0.3250   -6.1710   -0.8090 h1        1 MOL      0.145277
     78 H31         1.4730   -5.0370    1.6800 h1        1 MOL     -0.043336
     79 H32         2.0670   -6.9450    2.0050 ho        1 MOL      0.377025
     80 H33        -0.6200   -7.1990    1.1810 hc        1 MOL      0.125888
     81 H34        -0.1220   -6.5890    2.7670 hc        1 MOL      0.125888
     82 H35        -1.0790   -5.5210    1.6390 hc        1 MOL      0.125888
     83 N9         -1.3330   -4.3850   -0.7840 n         1 MOL     -0.167832
     84 C26        -2.3740   -3.2960   -0.8680 c3        1 MOL     -0.189768
     85 C27        -3.0960   -3.3170    0.5500 c         1 MOL      0.257758
     86 O15        -3.5350   -4.3260    1.0410 o         1 MOL     -0.519406
     87 C28        -3.3970   -3.6960   -1.9910 c3        1 MOL      0.364802
     88 C29        -4.6220   -2.7740   -2.1270 c3        1 MOL      0.084931
     89 C30        -2.6910   -3.9600   -3.3850 c3        1 MOL     -0.488398
     90 C31        -5.6580   -3.3390   -3.0260 c3        1 MOL     -0.208979
     91 H36        -1.5710   -5.3450   -0.9670 hn        1 MOL      0.216621
     92 H37        -1.8770   -2.3570   -1.0820 h1        1 MOL      0.134759
     93 H38        -3.6920   -4.6890   -1.6690 hc        1 MOL     -0.035906
     94 H39        -4.2910   -1.8240   -2.5240 hc        1 MOL     -0.018089
     95 H40        -5.0510   -2.6270   -1.1340 hc        1 MOL     -0.018089
     96 H41        -3.3820   -3.7160   -4.1930 hc        1 MOL      0.112448
     97 H42        -1.7340   -3.4590   -3.4920 hc        1 MOL      0.112448
     98 H43        -2.4240   -5.0140   -3.4840 hc        1 MOL      0.112448
     99 H44        -5.4040   -2.9520   -4.0140 hc        1 MOL      0.033255
    100 H45        -5.6270   -4.4280   -3.1520 hc        1 MOL      0.033255
    101 H46        -6.6320   -2.9450   -2.7450 hc        1 MOL      0.033255
    102 N10        -3.1240   -2.1310    1.2350 n         1 MOL      0.064120
    103 C32        -3.7630   -1.9310    2.5070 c3        1 MOL     -0.015863
    104 C33        -5.0430   -1.1340    2.4590 c         1 MOL      0.444369
    105 O16        -5.7840   -1.1660    3.4380 o         1 MOL     -0.561946
    106 C34        -2.7870   -1.3510    3.5890 c3        1 MOL     -0.103726
    107 C35        -1.4290   -2.2090    3.5980 c         1 MOL      0.668420
    108 O17        -0.4540   -1.9560    2.8370 o         1 MOL     -0.672326
    109 O18        -1.3720   -3.0950    4.4540 o         1 MOL     -0.672326
    110 H47        -2.5900   -1.3780    0.8200 hn        1 MOL      0.010462
    111 H48        -4.0960   -2.9250    2.8080 h1        1 MOL      0.094453
    112 H49        -3.2140   -1.3750    4.5900 hc        1 MOL      0.023620
    113 H50        -2.5920   -0.3370    3.2380 hc        1 MOL      0.023620
    114 N11        -5.3400   -0.4650    1.2970 n         1 MOL     -0.398223
    115 C36        -6.5440    0.2720    1.0770 c3        1 MOL      0.486594
    116 C37        -6.1250    1.6170    0.4320 c         1 MOL      0.115267
    117 O19        -6.6740    1.9840   -0.5950 o         1 MOL     -0.404873
    118 C38        -7.5590   -0.4770    0.2070 c3        1 MOL     -0.417296
    119 C39        -8.9500    0.1790    0.0270 ca        1 MOL      0.187029
    120 C40        -9.5150    1.1490    0.9700 ca        1 MOL     -0.187113
    121 C41        -9.6650   -0.3450   -1.0550 ca        1 MOL     -0.187113
    122 C42       -10.8100    1.5820    0.5930 ca        1 MOL     -0.140929
    123 C43       -10.9680    0.1220   -1.3630 ca        1 MOL     -0.140929
    124 C44       -11.5090    1.1400   -0.5590 ca        1 MOL     -0.101960
    125 H51        -4.6340   -0.4050    0.5670 hn        1 MOL      0.192064
    126 H52        -7.0400    0.5040    2.0060 h1        1 MOL     -0.021293
    127 H53        -7.6810   -1.4920    0.5670 hc        1 MOL      0.126053
    128 H54        -7.0800   -0.5550   -0.7740 hc        1 MOL      0.126053
    129 H55        -9.0450    1.4660    1.8890 ha        1 MOL      0.142410
    130 H56        -9.1970   -1.0470   -1.7280 ha        1 MOL      0.142410
    131 H57       -11.3350    2.1230    1.3580 ha        1 MOL      0.105937
    132 H58       -11.5610   -0.1140   -2.2360 ha        1 MOL      0.105937
    133 H59       -12.5050    1.5050   -0.7440 ha        1 MOL      0.089514
    134 N12        -5.2410    2.4280    1.1100 n         1 MOL      0.126084
    135 C45        -4.7820    3.6810    0.5540 c3        1 MOL     -0.115735
    136 C46        -4.2680    3.8040   -0.8300 c         1 MOL      0.220750
    137 O20        -4.2980    4.8760   -1.4390 o         1 MOL     -0.493482
    138 C47        -3.8000    4.3280    1.5980 c3        1 MOL     -0.004354
    139 C48        -4.3430    3.7480    2.8170 c3        1 MOL     -0.115234
    140 C49        -4.7120    2.2220    2.4670 c3        1 MOL     -0.244987
    141 H60        -5.6750    4.3000    0.6530 h1        1 MOL      0.097511
    142 H61        -2.7910    3.9760    1.3800 hc        1 MOL      0.067197
    143 H62        -3.8930    5.4110    1.6250 hc        1 MOL      0.067197
    144 H63        -3.5100    3.8240    3.5100 hc        1 MOL      0.048957
    145 H64        -5.1840    4.3600    3.1590 hc        1 MOL      0.048957
    146 H65        -3.7820    1.6700    2.4080 h1        1 MOL      0.130971
    147 H66        -5.4600    1.8470    3.1620 h1        1 MOL      0.130971
    148 N13        -3.8080    2.6980   -1.4030 n         1 MOL      0.004356
    149 C50        -3.4060    2.5720   -2.7660 c3        1 MOL     -0.088768
    150 C51        -4.5350    2.5820   -3.7710 c         1 MOL      0.549014
    151 O21        -4.4410    3.0850   -4.8720 o         1 MOL     -0.565533
    152 C52        -2.7010    1.2810   -2.9610 c3        1 MOL      0.044035
    153 C53        -1.6290    0.9010   -2.0090 c3        1 MOL     -0.007176
    154 C54        -1.9990    0.3420   -0.6570 c         1 MOL      0.527204
    155 O22        -1.1050   -0.0570    0.0720 o         1 MOL     -0.585402
    156 O23        -3.1910    0.1670   -0.3770 o         1 MOL     -0.585402
    157 H67        -3.9430    1.8960   -0.7930 hn        1 MOL      0.132326
    158 H68        -2.7740    3.3870   -3.1270 h1        1 MOL      0.068976
    159 H69        -2.1960    1.3260   -3.9300 hc        1 MOL     -0.013071
    160 H70        -3.4370    0.4690   -3.0160 hc        1 MOL     -0.013071
    161 H71        -1.1500    1.8460   -1.7470 hc        1 MOL     -0.004134
    162 H72        -0.8100    0.3200   -2.4350 hc        1 MOL     -0.004134
    163 N14        -5.7230    2.0870   -3.3720 n         1 MOL     -0.244007
    164 C55        -6.8960    2.4630   -4.1750 c3        1 MOL     -0.293134
    165 H73        -7.2040    3.4760   -3.9140 h1        1 MOL      0.112881
    166 H74        -6.6410    2.4230   -5.2340 h1        1 MOL      0.112881
    167 H75        -7.7130    1.7710   -3.9710 h1        1 MOL      0.112881
    168 H76        -5.8730    1.6650   -2.4630 hn        1 MOL      0.201408
    169 Ca1         1.0670   -0.7730    1.3250 Ca        1 MOL      1.703085
    170 O24         2.8460   -2.7050    1.9660 oh        1 MOL     -0.909785
    171 H77         3.6970   -3.0760    1.7660 ho        1 MOL      0.436536
    172 H78         2.5140   -3.2250    2.6950 ho        1 MOL      0.436536
    173 O25         0.8340    1.7700    1.1400 oh        1 MOL     -0.909785
    174 H79         0.2960    2.5290    1.3660 ho        1 MOL      0.436536
    175 H80         1.4910    2.1110    0.5340 ho        1 MOL      0.436536
    176 O26         1.9890   -0.9930   -1.2630 oh        1 MOL     -0.909785
    177 H81         1.2780   -1.4640   -1.7030 ho        1 MOL      0.436536
    178 H82         2.7850   -1.3490   -1.6530 ho        1 MOL      0.436536
@<TRIPOS>BOND
     1    1    2 1   
     2    1    4 1   
     3    1    5 1   
     4    1    6 1   
     5    2    3 2   
     6    2    7 1   
     7    7    8 1   
     8    7   15 1   
     9    8    9 1   
    10    8   11 1   
    11    8   16 1   
    12    9   10 2   
    13    9   19 1   
    14   11   12 1   
    15   11   17 1   
    16   11   18 1   
    17   12   13 1   
    18   12   14 1   
    19   19   20 1   
    20   19   24 1   
    21   20   21 1   
    22   20   23 1   
    23   20   25 1   
    24   21   22 2   
    25   21   29 1   
    26   23   26 1   
    27   23   27 1   
    28   23   28 1   
    29   29   30 1   
    30   29   37 1   
    31   30   31 1   
    32   30   33 1   
    33   30   38 1   
    34   31   32 2   
    35   31   41 1   
    36   33   34 1   
    37   33   39 1   
    38   33   40 1   
    39   34   35 1   
    40   34   36 1   
    41   41   42 1   
    42   41   45 1   
    43   42   43 1   
    44   42   46 1   
    45   42   47 1   
    46   43   44 2   
    47   43   48 1   
    48   48   49 1   
    49   48   56 1   
    50   49   50 1   
    51   49   52 1   
    52   49   57 1   
    53   50   51 2   
    54   50   62 1   
    55   52   53 1   
    56   52   58 1   
    57   52   59 1   
    58   53   54 1   
    59   53   55 2   
    60   54   60 1   
    61   54   61 1   
    62   62   63 1   
    63   62   66 1   
    64   63   64 1   
    65   63   67 1   
    66   63   68 1   
    67   64   65 2   
    68   64   69 1   
    69   69   70 1   
    70   69   76 1   
    71   70   71 1   
    72   70   73 1   
    73   70   77 1   
    74   71   72 2   
    75   71   83 1   
    76   73   74 1   
    77   73   75 1   
    78   73   78 1   
    79   74   80 1   
    80   74   81 1   
    81   74   82 1   
    82   75   79 1   
    83   83   84 1   
    84   83   91 1   
    85   84   85 1   
    86   84   87 1   
    87   84   92 1   
    88   85   86 2   
    89   85  102 1   
    90   87   88 1   
    91   87   89 1   
    92   87   93 1   
    93   88   90 1   
    94   88   94 1   
    95   88   95 1   
    96   89   96 1   
    97   89   97 1   
    98   89   98 1   
    99   90   99 1   
   100   90  100 1   
   101   90  101 1   
   102  102  103 1   
   103  102  110 1   
   104  103  104 1   
   105  103  106 1   
   106  103  111 1   
   107  104  105 2   
   108  104  114 1   
   109  106  107 1   
   110  106  112 1   
   111  106  113 1   
   112  107  108 1   
   113  107  109 1   
   114  114  115 1   
   115  114  125 1   
   116  115  116 1   
   117  115  118 1   
   118  115  126 1   
   119  116  117 2   
   120  116  134 1   
   121  118  119 1   
   122  118  127 1   
   123  118  128 1   
   124  119  120 ar  
   125  119  121 ar  
   126  120  122 ar  
   127  120  129 1   
   128  121  123 ar  
   129  121  130 1   
   130  122  124 ar  
   131  122  131 1   
   132  123  124 ar  
   133  123  132 1   
   134  124  133 1   
   135  134  135 1   
   136  134  140 1   
   137  135  136 1   
   138  135  138 1   
   139  135  141 1   
   140  136  137 2   
   141  136  148 1   
   142  138  139 1   
   143  138  142 1   
   144  138  143 1   
   145  139  140 1   
   146  139  144 1   
   147  139  145 1   
   148  140  146 1   
   149  140  147 1   
   150  148  149 1   
   151  148  157 1   
   152  149  150 1   
   153  149  152 1   
   154  149  158 1   
   155  150  151 2   
   156  150  163 1   
   157  152  153 1   
   158  152  159 1   
   159  152  160 1   
   160  153  154 1   
   161  153  161 1   
   162  153  162 1   
   163  154  155 1   
   164  154  156 1   
   165  163  164 1   
   166  163  168 1   
   167  164  165 1   
   168  164  166 1   
   169  164  167 1   
   170  170  171 1   
   171  170  172 1   
   172  173  174 1   
   173  173  175 1   
   174  176  177 1   
   175  176  178 1   
@<TRIPOS>SUBSTRUCTURE
     1 MOL         1 TEMP              0 ****  ****    0 ROOT
