@<TRIPOS>MOLECULE
MOL
  192   187     1     0     0
SMALL
resp


@<TRIPOS>ATOM
      1 C1         -4.2830   -4.7350   -2.6510 c3        1 MOL     -0.332274
      2 C2         -4.9970   -3.6950   -1.8270 c         1 MOL      0.794477
      3 O1         -4.4890   -3.2660   -0.7960 o         1 MOL     -0.699032
      4 H1         -4.0630   -4.3270   -3.6380 hc        1 MOL      0.080946
      5 H2         -3.3510   -5.0130   -2.1580 hc        1 MOL      0.080946
      6 H3         -4.9160   -5.6150   -2.7550 hc        1 MOL      0.080946
      7 N1         -6.2170   -3.3610   -2.2380 n         1 MOL     -0.600461
      8 C3         -7.0270   -2.1920   -1.6440 c3        1 MOL      0.166078
      9 C4         -6.1960   -0.8550   -1.5350 c         1 MOL      0.580479
     10 O2         -5.7220   -0.4670   -0.5060 o         1 MOL     -0.464771
     11 C5         -7.8830   -2.6270   -0.4440 c3        1 MOL     -0.211236
     12 C6         -7.2690   -3.6810    0.4830 c         1 MOL      0.771656
     13 O3         -6.3560   -3.3180    1.2600 o         1 MOL     -0.736602
     14 O4         -7.7930   -4.8520    0.4860 o         1 MOL     -0.736602
     15 H4         -6.5760   -3.7330   -3.0970 hn        1 MOL      0.302604
     16 H5         -7.7730   -2.0200   -2.4210 h1        1 MOL      0.026490
     17 H6         -8.7990   -3.1390   -0.7170 hc        1 MOL      0.034283
     18 H7         -8.0490   -1.6800    0.0810 hc        1 MOL      0.034283
     19 N2         -5.8640   -0.3130   -2.7280 n         1 MOL     -0.724209
     20 C7         -4.9290    0.8260   -3.1330 c3        1 MOL      0.332936
     21 C8         -5.1770    2.2120   -2.4950 c         1 MOL      0.216993
     22 O5         -4.9750    3.2200   -3.2060 o         1 MOL     -0.508536
     23 C9         -3.4520    0.4160   -2.9240 c3        1 MOL      0.208371
     24 C10        -2.4110    1.4330   -3.4310 c3        1 MOL      0.033325
     25 C11        -3.2580   -0.9360   -3.6730 c3        1 MOL     -0.335932
     26 C12        -2.3740    1.7320   -4.8850 c3        1 MOL     -0.315223
     27 H8         -6.3160   -0.6810   -3.5560 hn        1 MOL      0.305321
     28 H9         -5.0180    0.9310   -4.2130 h1        1 MOL      0.023674
     29 H10        -3.2100    0.2790   -1.8670 hc        1 MOL     -0.096268
     30 H11        -1.4320    1.0800   -3.0940 hc        1 MOL      0.080196
     31 H12        -2.5690    2.4010   -2.9670 hc        1 MOL      0.080196
     32 H13        -3.6490   -0.9800   -4.6940 hc        1 MOL      0.061782
     33 H14        -2.1760   -1.0930   -3.7080 hc        1 MOL      0.061782
     34 H15        -3.7670   -1.6630   -3.0430 hc        1 MOL      0.061782
     35 H16        -1.5830    2.4740   -4.9970 hc        1 MOL      0.055738
     36 H17        -2.0280    0.8780   -5.4750 hc        1 MOL      0.055738
     37 H18        -3.2960    2.1270   -5.3120 hc        1 MOL      0.055738
     38 N3         -5.8020    2.2280   -1.3000 n         1 MOL     -0.113908
     39 C13        -6.3920    3.4810   -0.7990 c3        1 MOL      0.063238
     40 C14        -5.4140    4.7540   -0.9260 c         1 MOL      0.563929
     41 O6         -5.9210    5.7620   -1.3020 o         1 MOL     -0.579728
     42 C15        -6.9590    3.3620    0.6240 c3        1 MOL     -0.228942
     43 C16        -7.9710    2.2590    0.7660 c         1 MOL      0.712382
     44 O7         -8.1790    1.6940    1.8910 o         1 MOL     -0.703513
     45 O8         -8.6360    1.9490   -0.2370 o         1 MOL     -0.703513
     46 H19        -5.9180    1.3500   -0.8130 hn        1 MOL      0.199857
     47 H20        -7.2630    3.6860   -1.4250 h1        1 MOL      0.035829
     48 H21        -7.3480    4.3260    0.9710 hc        1 MOL      0.053733
     49 H22        -6.1090    3.1880    1.2970 hc        1 MOL      0.053733
     50 N4         -4.1360    4.7180   -0.5660 n         1 MOL     -0.514174
     51 C17        -3.2750    3.7320    0.0500 c3        1 MOL      0.261726
     52 C18        -2.1570    4.2660    0.9640 c         1 MOL      0.552973
     53 O9         -1.6690    5.3260    0.7220 o         1 MOL     -0.593275
     54 H23        -3.7080    5.6290   -0.6880 hn        1 MOL      0.281431
     55 H24        -2.7450    3.1210   -0.6770 h1        1 MOL     -0.025899
     56 H25        -3.9010    3.0500    0.6340 h1        1 MOL     -0.025899
     57 N5         -1.7830    3.6270    2.1250 n         1 MOL     -0.525709
     58 C19        -2.2810    2.3610    2.6870 c3        1 MOL      0.380152
     59 C20        -2.3090    1.1650    1.6320 c         1 MOL      0.305671
     60 O10        -3.3530    0.6590    1.2580 o         1 MOL     -0.628021
     61 C21        -3.6320    2.6780    3.3380 c3        1 MOL     -0.428616
     62 C22        -4.1050    1.6010    4.1720 c         1 MOL      0.833453
     63 O11        -3.3210    0.9260    4.8570 o         1 MOL     -0.724212
     64 O12        -5.2960    1.2480    4.1670 o         1 MOL     -0.724212
     65 H26        -1.3180    4.1800    2.8260 hn        1 MOL      0.275727
     66 H27        -1.6140    2.0900    3.5040 h1        1 MOL     -0.031393
     67 H28        -4.4040    2.8010    2.5810 hc        1 MOL      0.089724
     68 H29        -3.5650    3.5900    3.9420 hc        1 MOL      0.089724
     69 N6         -1.1940    0.7680    1.0640 n         1 MOL      0.013562
     70 C23         0.1310    1.3130    1.2500 c3        1 MOL     -0.613839
     71 C24         0.7470    2.2720    0.1620 c         1 MOL      0.745307
     72 O13         0.2450    2.2020   -0.9840 o         1 MOL     -0.595108
     73 H30        -1.2560   -0.0690    0.5030 hn        1 MOL      0.233383
     74 H31         0.7130    0.3890    1.2090 h1        1 MOL      0.177355
     75 H32         0.1600    1.8110    2.2190 h1        1 MOL      0.177355
     76 N7          1.7710    3.0440    0.5720 n         1 MOL     -0.721027
     77 C25         2.2110    4.2300   -0.1820 c3        1 MOL      0.224938
     78 C26         2.9900    3.9310   -1.4550 c         1 MOL      0.218041
     79 O14         3.5000    4.7700   -2.1690 o         1 MOL     -0.465632
     80 C27         2.8050    5.2810    0.7690 c3        1 MOL      0.198934
     81 C28         1.8210    5.9010    1.6880 c3        1 MOL     -0.134148
     82 C29         2.3710    7.0250    2.4560 c         1 MOL      0.671720
     83 N8          1.5770    7.6040    3.3490 n         1 MOL     -0.812271
     84 O15         3.4500    7.6410    2.2390 o         1 MOL     -0.572872
     85 H33         2.2080    2.8680    1.4640 hn        1 MOL      0.393400
     86 H34         1.3310    4.7960   -0.4830 h1        1 MOL      0.121674
     87 H35         3.2820    6.0730    0.1970 hc        1 MOL     -0.070647
     88 H36         3.5550    4.7180    1.3270 hc        1 MOL     -0.070647
     89 H37         1.4320    5.1760    2.3980 hc        1 MOL      0.036567
     90 H38         1.0010    6.3300    1.1200 hc        1 MOL      0.036567
     91 H39         0.6500    7.2040    3.4080 hn        1 MOL      0.367193
     92 H40         1.8560    8.4020    3.8960 hn        1 MOL      0.367193
     93 N9          3.0790    2.6230   -1.8710 n         1 MOL     -0.055924
     94 C30         3.4980    2.1550   -3.2140 c3        1 MOL     -0.018247
     95 C31         4.9590    1.6950   -3.2490 c         1 MOL      0.458970
     96 O16         5.6230    1.6650   -4.3020 o         1 MOL     -0.544937
     97 C32         2.4970    1.1310   -3.7710 c3        1 MOL     -0.006477
     98 C33         1.2150    1.8730   -4.2440 c3        1 MOL     -0.071450
     99 C34         2.1340    0.0690   -2.7800 c3        1 MOL     -0.071450
    100 H41         2.6020    1.9190   -1.3180 hn        1 MOL      0.141103
    101 H42         3.5410    2.9810   -3.9330 h1        1 MOL      0.090918
    102 H43         2.9970    0.6110   -4.5830 hc        1 MOL      0.027007
    103 H44         0.7140    2.2250   -3.3370 hc        1 MOL      0.021949
    104 H45         1.4600    2.6050   -5.0130 hc        1 MOL      0.021949
    105 H46         0.5590    1.1050   -4.6530 hc        1 MOL      0.021949
    106 H47         2.9740   -0.5970   -2.5740 hc        1 MOL      0.021949
    107 H48         1.7480    0.4690   -1.8380 hc        1 MOL      0.021949
    108 H49         1.3800   -0.5500   -3.2530 hc        1 MOL      0.021949
    109 N10         5.5230    1.2430   -2.1460 n         1 MOL     -0.265090
    110 C35         6.9620    0.7740   -2.0190 c3        1 MOL      0.099116
    111 C36         7.0750   -0.5850   -1.3060 c         1 MOL      0.400788
    112 O17         8.1620   -1.2050   -1.3460 o         1 MOL     -0.501081
    113 C37         7.7240    1.7440   -1.1940 c3        1 MOL     -0.505193
    114 C38         7.7670    3.1270   -1.7220 c         1 MOL      0.784488
    115 N11         6.8360    3.9300   -1.2170 n         1 MOL     -0.808401
    116 O18         8.6440    3.5350   -2.4740 o         1 MOL     -0.568365
    117 H50         4.8960    1.3720   -1.3700 hn        1 MOL      0.135587
    118 H51         7.3560    0.6670   -3.0320 h1        1 MOL      0.115849
    119 H52         8.7700    1.4410   -1.1260 hc        1 MOL      0.161202
    120 H53         7.3440    1.6170   -0.1760 hc        1 MOL      0.161202
    121 H54         6.2450    3.5320   -0.5050 hn        1 MOL      0.361356
    122 H55         6.7570    4.9240   -1.3720 hn        1 MOL      0.361356
    123 N12         6.0220   -1.0040   -0.5520 n         1 MOL     -0.381874
    124 C39         5.9750   -2.1010    0.3910 c3        1 MOL      0.405929
    125 C40         4.5630   -2.6800    0.4550 c         1 MOL      0.165960
    126 O19         3.5500   -2.0500    0.2550 o         1 MOL     -0.411141
    127 C41         6.4380   -1.6820    1.7910 c3        1 MOL     -0.073550
    128 C42         7.8200   -1.1410    2.0190 ca        1 MOL      0.036344
    129 C43         8.9230   -1.9460    1.6830 ca        1 MOL     -0.168646
    130 C44         7.9950    0.2110    2.3890 ca        1 MOL     -0.168646
    131 C45        10.2590   -1.4470    1.7380 ca        1 MOL     -0.243456
    132 C46         9.2780    0.7460    2.3700 ca        1 MOL     -0.243456
    133 C47        10.4000   -0.0990    2.0820 ca        1 MOL      0.319532
    134 O20        11.6740    0.4240    2.0530 oh        1 MOL     -0.501117
    135 H56         5.2010   -0.4170   -0.5960 hn        1 MOL      0.184159
    136 H57         6.5980   -2.9020   -0.0170 h1        1 MOL     -0.035845
    137 H58         6.3550   -2.5410    2.4610 hc        1 MOL      0.047432
    138 H59         5.7070   -0.9470    2.1270 hc        1 MOL      0.047432
    139 H60         8.7660   -2.9350    1.2780 ha        1 MOL      0.130818
    140 H61         7.2120    0.8960    2.7070 ha        1 MOL      0.130818
    141 H62        11.0070   -2.1660    1.4370 ha        1 MOL      0.148149
    142 H63         9.4090    1.7990    2.5040 ha        1 MOL      0.148149
    143 H64        12.2600   -0.3340    2.0990 ho        1 MOL      0.348930
    144 N13         4.5310   -3.9200    0.9350 n         1 MOL     -0.269454
    145 C48         3.4200   -4.8840    1.2340 c3        1 MOL     -0.097329
    146 C49         2.3530   -5.2960    0.2390 c         1 MOL      0.282442
    147 O21         1.9150   -6.4360    0.1980 o         1 MOL     -0.467740
    148 C50         2.6510   -4.3350    2.4520 c3        1 MOL      0.532929
    149 C51         3.3680   -4.3030    3.7990 c3        1 MOL     -0.352897
    150 C52         2.6910   -3.4640    4.8730 c         1 MOL      0.742765
    151 O22         1.5240   -3.0350    4.7440 o         1 MOL     -0.735819
    152 O23         3.3580   -3.0450    5.8820 o         1 MOL     -0.735819
    153 H65         5.4620   -4.3080    0.9920 hn        1 MOL      0.231772
    154 H66         3.8680   -5.7980    1.6110 h1        1 MOL      0.062218
    155 H67         1.7900   -4.9740    2.6060 hc        1 MOL     -0.049172
    156 H68         2.2930   -3.3150    2.3430 hc        1 MOL     -0.049172
    157 H69         4.3910   -3.9640    3.6590 hc        1 MOL     -0.004628
    158 H70         3.4080   -5.3290    4.1870 hc        1 MOL     -0.004628
    159 N14         1.9260   -4.3440   -0.6250 n         1 MOL     -0.156804
    160 C53         0.9390   -4.5560   -1.6740 c3        1 MOL      0.208608
    161 C54         1.4690   -5.3310   -2.9080 c         1 MOL      0.353219
    162 O24         0.7520   -6.2990   -3.3310 o         1 MOL     -0.533415
    163 C55         0.3170   -3.1950   -2.0760 c3        1 MOL     -0.047007
    164 C56        -0.0960   -2.0900   -1.0640 c3        1 MOL      0.350922
    165 C57        -1.0870   -2.4950    0.0540 c         1 MOL      0.598186
    166 O25        -0.7760   -3.3360    0.9200 o         1 MOL     -0.655046
    167 O26        -2.1330   -1.8390    0.1800 o         1 MOL     -0.655046
    168 H71         1.9900   -3.3710   -0.3300 hn        1 MOL      0.077391
    169 H72         0.0960   -5.1510   -1.3220 h1        1 MOL      0.020887
    170 H73        -0.6430   -3.4170   -2.5300 hc        1 MOL     -0.048025
    171 H74         0.9800   -2.7250   -2.8120 hc        1 MOL     -0.048025
    172 H75        -0.4880   -1.2680   -1.6620 hc        1 MOL     -0.076436
    173 H76         0.7760   -1.8120   -0.4690 hc        1 MOL     -0.076436
    174 N15         2.7160   -5.1520   -3.2380 n         1 MOL     -0.195627
    175 C58         3.4860   -6.1560   -3.8670 c3        1 MOL     -0.254827
    176 H77         3.7070   -5.8560   -4.8920 h1        1 MOL      0.103923
    177 H78         4.4190   -6.2960   -3.3210 h1        1 MOL      0.103923
    178 H79         2.9270   -7.0920   -3.8760 h1        1 MOL      0.103923
    179 H80         3.2840   -4.3900   -2.9040 hn        1 MOL      0.221056
    180 Ca1        -4.3250   -1.8650    1.5190 Ca        1 MOL      1.780656
    181 O27        -5.2270   -3.0090    3.7940 oh        1 MOL     -0.830852
    182 H81        -4.7580   -2.8930    4.6150 ho        1 MOL      0.400890
    183 H82        -6.1000   -3.3230    4.0530 ho        1 MOL      0.400890
    184 O28        -6.5150   -0.3180    2.7230 oh        1 MOL     -0.830852
    185 H83        -5.9830    0.2590    3.2740 ho        1 MOL      0.400890
    186 H84        -7.0110    0.2730    2.1630 ho        1 MOL      0.400890
    187 O29        -2.4400   -1.4480    3.2600 oh        1 MOL     -0.830852
    188 H85        -2.5430   -0.6910    3.8480 ho        1 MOL      0.400890
    189 H86        -1.5010   -1.6070    3.2360 ho        1 MOL      0.400890
    190 O30        -3.0280   -4.2810    1.8290 oh        1 MOL     -0.830852
    191 H87        -3.2580   -5.1580    1.5480 ho        1 MOL      0.400890
    192 H88        -2.2400   -4.0690    1.3160 ho        1 MOL      0.400890
@<TRIPOS>BOND
     1    1    2 1   
     2    1    4 1   
     3    1    5 1   
     4    1    6 1   
     5    2    3 2   
     6    2    7 1   
     7    7    8 1   
     8    7   15 1   
     9    8    9 1   
    10    8   11 1   
    11    8   16 1   
    12    9   10 2   
    13    9   19 1   
    14   11   12 1   
    15   11   17 1   
    16   11   18 1   
    17   12   13 1   
    18   12   14 1   
    19   19   20 1   
    20   19   27 1   
    21   20   21 1   
    22   20   23 1   
    23   20   28 1   
    24   21   22 2   
    25   21   38 1   
    26   23   24 1   
    27   23   25 1   
    28   23   29 1   
    29   24   26 1   
    30   24   30 1   
    31   24   31 1   
    32   25   32 1   
    33   25   33 1   
    34   25   34 1   
    35   26   35 1   
    36   26   36 1   
    37   26   37 1   
    38   38   39 1   
    39   38   46 1   
    40   39   40 1   
    41   39   42 1   
    42   39   47 1   
    43   40   41 2   
    44   40   50 1   
    45   42   43 1   
    46   42   48 1   
    47   42   49 1   
    48   43   44 1   
    49   43   45 1   
    50   50   51 1   
    51   50   54 1   
    52   51   52 1   
    53   51   55 1   
    54   51   56 1   
    55   52   53 2   
    56   52   57 1   
    57   57   58 1   
    58   57   65 1   
    59   58   59 1   
    60   58   61 1   
    61   58   66 1   
    62   59   60 2   
    63   59   69 1   
    64   61   62 1   
    65   61   67 1   
    66   61   68 1   
    67   62   63 1   
    68   62   64 1   
    69   69   70 1   
    70   69   73 1   
    71   70   71 1   
    72   70   74 1   
    73   70   75 1   
    74   71   72 2   
    75   71   76 1   
    76   76   77 1   
    77   76   85 1   
    78   77   78 1   
    79   77   80 1   
    80   77   86 1   
    81   78   79 2   
    82   78   93 1   
    83   80   81 1   
    84   80   87 1   
    85   80   88 1   
    86   81   82 1   
    87   81   89 1   
    88   81   90 1   
    89   82   83 1   
    90   82   84 2   
    91   83   91 1   
    92   83   92 1   
    93   93   94 1   
    94   93  100 1   
    95   94   95 1   
    96   94   97 1   
    97   94  101 1   
    98   95   96 2   
    99   95  109 1   
   100   97   98 1   
   101   97   99 1   
   102   97  102 1   
   103   98  103 1   
   104   98  104 1   
   105   98  105 1   
   106   99  106 1   
   107   99  107 1   
   108   99  108 1   
   109  109  110 1   
   110  109  117 1   
   111  110  111 1   
   112  110  113 1   
   113  110  118 1   
   114  111  112 2   
   115  111  123 1   
   116  113  114 1   
   117  113  119 1   
   118  113  120 1   
   119  114  115 1   
   120  114  116 2   
   121  115  121 1   
   122  115  122 1   
   123  123  124 1   
   124  123  135 1   
   125  124  125 1   
   126  124  127 1   
   127  124  136 1   
   128  125  126 2   
   129  125  144 1   
   130  127  128 1   
   131  127  137 1   
   132  127  138 1   
   133  128  129 ar  
   134  128  130 ar  
   135  129  131 ar  
   136  129  139 1   
   137  130  132 ar  
   138  130  140 1   
   139  131  133 ar  
   140  131  141 1   
   141  132  133 ar  
   142  132  142 1   
   143  133  134 1   
   144  134  143 1   
   145  144  145 1   
   146  144  153 1   
   147  145  146 1   
   148  145  148 1   
   149  145  154 1   
   150  146  147 2   
   151  146  159 1   
   152  148  149 1   
   153  148  155 1   
   154  148  156 1   
   155  149  150 1   
   156  149  157 1   
   157  149  158 1   
   158  150  151 1   
   159  150  152 1   
   160  159  160 1   
   161  159  168 1   
   162  160  161 1   
   163  160  163 1   
   164  160  169 1   
   165  161  162 2   
   166  161  174 1   
   167  163  164 1   
   168  163  170 1   
   169  163  171 1   
   170  164  165 1   
   171  164  172 1   
   172  164  173 1   
   173  165  166 1   
   174  165  167 1   
   175  174  175 1   
   176  174  179 1   
   177  175  176 1   
   178  175  177 1   
   179  175  178 1   
   180  181  182 1   
   181  181  183 1   
   182  184  185 1   
   183  184  186 1   
   184  187  188 1   
   185  187  189 1   
   186  190  191 1   
   187  190  192 1   
@<TRIPOS>SUBSTRUCTURE
     1 MOL         1 TEMP              0 ****  ****    0 ROOT
