@<TRIPOS>MOLECULE
MOL
  178   175     1     0     0
SMALL
resp


@<TRIPOS>ATOM
      1 C1          1.4020    6.8980   -1.4470 c3        1 MOL     -0.324760
      2 C2          2.7890    6.8500   -0.7820 c         1 MOL      0.710702
      3 O1          2.9630    7.2350    0.3870 o         1 MOL     -0.594444
      4 H1          1.3150    7.8080   -2.0410 hc        1 MOL      0.077594
      5 H2          1.2790    6.0300   -2.0950 hc        1 MOL      0.077594
      6 H3          0.6290    6.8910   -0.6780 hc        1 MOL      0.077594
      7 N1          3.6880    6.2750   -1.5730 n         1 MOL     -0.716660
      8 C3          5.1530    6.1850   -1.2520 c3        1 MOL      0.457994
      9 C4          5.5960    5.0360   -0.3490 c         1 MOL      0.440463
     10 O2          6.6520    4.4020   -0.5210 o         1 MOL     -0.449193
     11 C5          5.9930    6.2980   -2.5480 c3        1 MOL     -0.384125
     12 C6          7.5290    6.5400   -2.3230 c         1 MOL      0.769230
     13 O3          7.9360    7.4870   -1.6730 o         1 MOL     -0.736473
     14 O4          8.3350    5.6820   -2.8200 o         1 MOL     -0.736473
     15 H4          3.3470    6.0320   -2.4990 hn        1 MOL      0.348793
     16 H5          5.4480    7.0330   -0.6200 h1        1 MOL      0.010688
     17 H6          5.5250    7.0340   -3.1920 hc        1 MOL      0.027978
     18 H7          5.9420    5.3420   -3.0670 hc        1 MOL      0.027978
     19 N2          4.7980    4.8840    0.7390 n         1 MOL     -0.685284
     20 C7          5.0440    3.8810    1.7720 c3        1 MOL      0.563477
     21 C8          3.6890    3.4030    2.3210 c         1 MOL      0.286460
     22 O5          2.6280    4.0300    2.1560 o         1 MOL     -0.485454
     23 C9          5.9630    4.4940    2.8080 c3        1 MOL     -0.304736
     24 H8          3.9490    5.4290    0.7570 hn        1 MOL      0.332664
     25 H9          5.5960    3.0700    1.2890 h1        1 MOL     -0.053922
     26 H10         6.3540    3.7200    3.4600 hc        1 MOL      0.068233
     27 H11         6.7880    4.9340    2.2400 hc        1 MOL      0.068233
     28 H12         5.4470    5.2750    3.3700 hc        1 MOL      0.068233
     29 N3          3.6340    2.2290    2.9580 n         1 MOL     -0.253290
     30 C10         4.7410    1.2740    3.2480 c3        1 MOL     -0.334397
     31 C11         5.0900    0.4360    2.0920 c         1 MOL      0.702198
     32 O6          4.6770    0.6520    0.9290 o         1 MOL     -0.460548
     33 C12         4.1890    0.2710    4.2970 c3        1 MOL     -0.334241
     34 C13         2.9190   -0.4810    3.9540 c         1 MOL      0.876665
     35 O7          2.0000   -0.0720    3.2150 o         1 MOL     -0.756746
     36 O8          2.8510   -1.6530    4.3840 o         1 MOL     -0.756746
     37 H13         2.6900    1.9130    3.1460 hn        1 MOL      0.260721
     38 H14         5.6040    1.8050    3.6510 h1        1 MOL      0.206352
     39 H15         3.9240    0.7620    5.2360 hc        1 MOL      0.111703
     40 H16         4.9970   -0.4350    4.4880 hc        1 MOL      0.111703
     41 N4          5.8420   -0.6840    2.2170 n         1 MOL     -0.634392
     42 C14         6.2090   -1.7450    1.2120 c3        1 MOL     -0.042820
     43 C15         7.5160   -1.4600    0.4900 c         1 MOL      0.620799
     44 O9          8.3250   -0.5610    0.7710 o         1 MOL     -0.501298
     45 H17         6.2010   -0.9390    3.1240 hn        1 MOL      0.344636
     46 H18         5.3850   -1.7310    0.5060 h1        1 MOL      0.099559
     47 H19         6.3850   -2.6540    1.7790 h1        1 MOL      0.099559
     48 N5          7.7970   -2.2330   -0.6110 n         1 MOL     -0.617709
     49 C16         6.8860   -3.2710   -1.1040 c3        1 MOL      0.107801
     50 C17         5.6420   -2.7600   -1.9620 c         1 MOL      0.555015
     51 O10         5.3950   -1.6050   -2.1970 o         1 MOL     -0.462049
     52 C18         7.7510   -4.2230   -2.0280 c3        1 MOL     -0.188933
     53 C19         8.5820   -5.1690   -1.2390 c         1 MOL      0.744893
     54 N6          9.2630   -6.1110   -1.9230 n         1 MOL     -0.855944
     55 O11         8.6470   -5.1560   -0.0560 o         1 MOL     -0.538098
     56 H20         8.6950   -2.1510   -1.0670 hn        1 MOL      0.363001
     57 H21         6.4400   -3.8090   -0.2690 h1        1 MOL      0.009905
     58 H22         8.4020   -3.6850   -2.6970 hc        1 MOL      0.048697
     59 H23         7.1780   -4.9270   -2.6390 hc        1 MOL      0.048697
     60 H24         9.0740   -6.2420   -2.9060 hn        1 MOL      0.366428
     61 H25         9.6340   -6.8870   -1.3870 hn        1 MOL      0.366428
     62 N7          4.7360   -3.6750   -2.3520 n         1 MOL     -0.372158
     63 C20         3.5840   -3.3500   -3.1930 c3        1 MOL     -0.399444
     64 C21         2.2340   -3.9020   -2.8020 c         1 MOL      0.646223
     65 O12         1.3020   -3.6460   -3.6000 o         1 MOL     -0.588029
     66 H26         4.8440   -4.6150   -2.0030 hn        1 MOL      0.242823
     67 H27         3.7630   -3.6790   -4.2160 h1        1 MOL      0.197961
     68 H28         3.3270   -2.2880   -3.2530 h1        1 MOL      0.197961
     69 N8          2.0520   -4.6780   -1.7800 n         1 MOL     -0.333533
     70 C22         0.7200   -5.2290   -1.3510 c3        1 MOL     -0.354781
     71 C23        -0.3220   -4.1300   -0.9440 c         1 MOL      0.792879
     72 O13        -0.0040   -3.0680   -0.3810 o         1 MOL     -0.680908
     73 C24         0.7870   -6.3460   -0.2790 c3        1 MOL      0.650084
     74 C25         1.5160   -7.6360   -0.7830 c3        1 MOL     -0.517541
     75 O14         1.4990   -5.9690    0.8530 oh        1 MOL     -0.648723
     76 H29         2.8070   -4.8360   -1.1280 hn        1 MOL      0.257639
     77 H30         0.3240   -5.7130   -2.2400 h1        1 MOL      0.125355
     78 H31        -0.2120   -6.7110   -0.0380 h1        1 MOL     -0.045564
     79 H32         0.9360   -6.2540    1.5780 ho        1 MOL      0.393477
     80 H33         1.0200   -7.8900   -1.7110 hc        1 MOL      0.118235
     81 H34         2.5680   -7.4560   -0.9950 hc        1 MOL      0.118235
     82 H35         1.4470   -8.2780    0.1070 hc        1 MOL      0.118235
     83 N9         -1.5910   -4.4720   -1.1790 n         1 MOL     -0.483687
     84 C26        -2.7200   -3.5480   -0.9190 c3        1 MOL     -0.373964
     85 C27        -3.1550   -3.6970    0.5100 c         1 MOL      0.568562
     86 O15        -3.2640   -4.7900    0.9730 o         1 MOL     -0.532332
     87 C28        -3.8390   -3.7870   -2.0060 c3        1 MOL      0.371478
     88 C29        -5.0210   -2.8340   -1.7850 c3        1 MOL     -0.101142
     89 C30        -3.1690   -3.5430   -3.3270 c3        1 MOL     -0.283345
     90 C31        -6.3280   -3.0680   -2.5730 c3        1 MOL     -0.182566
     91 H36        -1.7440   -5.3490   -1.6580 hn        1 MOL      0.288835
     92 H37        -2.3270   -2.5300   -1.0150 h1        1 MOL      0.239507
     93 H38        -4.2700   -4.7910   -1.9720 hc        1 MOL     -0.017629
     94 H39        -4.6510   -1.8390   -2.0340 hc        1 MOL      0.051756
     95 H40        -5.3760   -2.9020   -0.7540 hc        1 MOL      0.051756
     96 H41        -2.6810   -4.4560   -3.6790 hc        1 MOL      0.063819
     97 H42        -3.8810   -3.3990   -4.1410 hc        1 MOL      0.063819
     98 H43        -2.4870   -2.6960   -3.2810 hc        1 MOL      0.063819
     99 H44        -6.1430   -2.8690   -3.6290 hc        1 MOL      0.032157
    100 H45        -6.5930   -4.1220   -2.4850 hc        1 MOL      0.032157
    101 H46        -7.1020   -2.3360   -2.3160 hc        1 MOL      0.032157
    102 N10        -3.3640   -2.5850    1.3080 n         1 MOL     -0.452885
    103 C32        -4.1410   -2.4680    2.6190 c3        1 MOL      0.231020
    104 C33        -5.2840   -1.3790    2.5870 c         1 MOL      0.314649
    105 O16        -6.0370   -1.3040    3.5400 o         1 MOL     -0.537741
    106 C34        -3.1930   -2.2120    3.8450 c3        1 MOL     -0.147160
    107 C35        -2.1050   -1.1290    3.6090 c         1 MOL      0.817167
    108 O17        -2.4970   -0.0040    3.9370 o         1 MOL     -0.754229
    109 O18        -0.9820   -1.3990    3.1670 o         1 MOL     -0.754229
    110 H47        -3.0680   -1.7150    0.9050 hn        1 MOL      0.177835
    111 H48        -4.5750   -3.4560    2.7810 h1        1 MOL      0.044142
    112 H49        -2.7270   -3.1670    4.0810 hc        1 MOL      0.004177
    113 H50        -3.8100   -1.8900    4.6890 hc        1 MOL      0.004177
    114 N11        -5.5390   -0.6600    1.4980 n         1 MOL     -0.210135
    115 C36        -6.7590    0.0940    1.2010 c3        1 MOL      0.127188
    116 C37        -6.4440    1.4010    0.4940 c         1 MOL      0.335502
    117 O19        -6.8170    1.6330   -0.6660 o         1 MOL     -0.476006
    118 C38        -7.9170   -0.8360    0.6290 c3        1 MOL     -0.371711
    119 C39        -9.1300   -0.0570    0.2330 ca        1 MOL      0.270844
    120 C40        -9.7010   -0.5070   -0.9650 ca        1 MOL     -0.210209
    121 C41        -9.8710    0.6940    1.1450 ca        1 MOL     -0.210209
    122 C42       -11.0200   -0.2020   -1.2100 ca        1 MOL     -0.114863
    123 C43       -11.1900    1.1170    0.8240 ca        1 MOL     -0.114863
    124 C44       -11.7760    0.6380   -0.3420 ca        1 MOL     -0.136559
    125 H51        -4.8730   -0.6740    0.7430 hn        1 MOL      0.240802
    126 H52        -7.3060    0.4250    2.0820 h1        1 MOL      0.058108
    127 H53        -8.1940   -1.6410    1.3130 hc        1 MOL      0.128347
    128 H54        -7.5110   -1.4260   -0.1940 hc        1 MOL      0.128347
    129 H55        -9.1470   -1.0210   -1.7390 ha        1 MOL      0.135801
    130 H56        -9.4360    0.9850    2.0850 ha        1 MOL      0.135801
    131 H57       -11.4790   -0.4910   -2.1470 ha        1 MOL      0.102528
    132 H58       -11.8090    1.7360    1.4440 ha        1 MOL      0.102528
    133 H59       -12.7960    0.8860   -0.6300 ha        1 MOL      0.097312
    134 N12        -5.6970    2.3270    1.1750 n         1 MOL     -0.112469
    135 C45        -5.3300    3.6350    0.6380 c3        1 MOL     -0.145749
    136 C46        -4.6600    3.6740   -0.7370 c         1 MOL      0.348993
    137 O20        -4.5700    4.7520   -1.3560 o         1 MOL     -0.504966
    138 C47        -4.3370    4.2650    1.6280 c3        1 MOL      0.058898
    139 C48        -5.0150    3.8120    2.9060 c3        1 MOL     -0.079856
    140 C49        -5.3180    2.3640    2.6430 c3        1 MOL     -0.244258
    141 H60        -6.2280    4.2460    0.6700 h1        1 MOL      0.127116
    142 H61        -3.3170    3.9110    1.5020 hc        1 MOL      0.044679
    143 H62        -4.2810    5.3530    1.5150 hc        1 MOL      0.044679
    144 H63        -4.4480    3.9440    3.8280 hc        1 MOL      0.030936
    145 H64        -5.8840    4.4630    3.0400 hc        1 MOL      0.030936
    146 H65        -4.3030    1.9910    2.7490 h1        1 MOL      0.195186
    147 H66        -5.9850    1.9280    3.3860 h1        1 MOL      0.195186
    148 N13        -4.0780    2.6060   -1.3120 n         1 MOL     -0.094544
    149 C50        -3.5890    2.5050   -2.6940 c3        1 MOL     -0.314499
    150 C51        -4.6820    2.9410   -3.6480 c         1 MOL      0.506765
    151 O21        -4.5080    3.7410   -4.6040 o         1 MOL     -0.548126
    152 C52        -3.0410    1.0970   -3.1350 c3        1 MOL      0.015961
    153 C53        -1.8820    0.6740   -2.2140 c3        1 MOL     -0.206292
    154 C54        -2.3530    0.1540   -0.8300 c         1 MOL      0.630665
    155 O22        -1.4820   -0.0760    0.0980 o         1 MOL     -0.692726
    156 O23        -3.5630   -0.0200   -0.4930 o         1 MOL     -0.692726
    157 H67        -4.1100    1.7360   -0.7940 hn        1 MOL      0.270349
    158 H68        -2.7130    3.1400   -2.8060 h1        1 MOL      0.146513
    159 H69        -2.6670    1.1700   -4.1520 hc        1 MOL      0.022105
    160 H70        -3.8250    0.3410   -3.0230 hc        1 MOL      0.022105
    161 H71        -1.2490    1.5550   -2.1850 hc        1 MOL      0.102511
    162 H72        -1.3060   -0.0660   -2.7680 hc        1 MOL      0.102511
    163 N14        -5.8670    2.3540   -3.4240 n         1 MOL     -0.171247
    164 C55        -7.0740    2.7420   -4.0820 c3        1 MOL     -0.279386
    165 H73        -7.0880    3.8250   -4.2060 h1        1 MOL      0.100638
    166 H74        -7.1240    2.2650   -5.0610 h1        1 MOL      0.100638
    167 H75        -7.9320    2.4340   -3.4830 h1        1 MOL      0.100638
    168 H76        -5.9640    1.7790   -2.5940 hn        1 MOL      0.229707
    169 Ca1         0.6540   -1.0210    1.2610 Ca        1 MOL      1.757584
    170 O24         1.3100   -3.1160    2.9030 oh        1 MOL     -0.846521
    171 H77         1.9300   -2.6910    3.4940 ho        1 MOL      0.403685
    172 H78         0.6970   -3.5730    3.4780 ho        1 MOL      0.403685
    173 O25         2.7880   -1.5810   -0.0710 oh        1 MOL     -0.846521
    174 H79         3.1600   -2.4460    0.0650 ho        1 MOL      0.403685
    175 H80         3.5320   -0.9870    0.0250 ho        1 MOL      0.403685
    176 O26         1.6640    1.2180    0.1700 oh        1 MOL     -0.846521
    177 H81         2.0930    1.1690   -0.6880 ho        1 MOL      0.403685
    178 H82         2.2230    1.8010    0.6740 ho        1 MOL      0.403685
@<TRIPOS>BOND
     1    1    2 1   
     2    1    4 1   
     3    1    5 1   
     4    1    6 1   
     5    2    3 2   
     6    2    7 1   
     7    7    8 1   
     8    7   15 1   
     9    8    9 1   
    10    8   11 1   
    11    8   16 1   
    12    9   10 2   
    13    9   19 1   
    14   11   12 1   
    15   11   17 1   
    16   11   18 1   
    17   12   13 1   
    18   12   14 1   
    19   19   20 1   
    20   19   24 1   
    21   20   21 1   
    22   20   23 1   
    23   20   25 1   
    24   21   22 2   
    25   21   29 1   
    26   23   26 1   
    27   23   27 1   
    28   23   28 1   
    29   29   30 1   
    30   29   37 1   
    31   30   31 1   
    32   30   33 1   
    33   30   38 1   
    34   31   32 2   
    35   31   41 1   
    36   33   34 1   
    37   33   39 1   
    38   33   40 1   
    39   34   35 1   
    40   34   36 1   
    41   41   42 1   
    42   41   45 1   
    43   42   43 1   
    44   42   46 1   
    45   42   47 1   
    46   43   44 2   
    47   43   48 1   
    48   48   49 1   
    49   48   56 1   
    50   49   50 1   
    51   49   52 1   
    52   49   57 1   
    53   50   51 2   
    54   50   62 1   
    55   52   53 1   
    56   52   58 1   
    57   52   59 1   
    58   53   54 1   
    59   53   55 2   
    60   54   60 1   
    61   54   61 1   
    62   62   63 1   
    63   62   66 1   
    64   63   64 1   
    65   63   67 1   
    66   63   68 1   
    67   64   65 2   
    68   64   69 1   
    69   69   70 1   
    70   69   76 1   
    71   70   71 1   
    72   70   73 1   
    73   70   77 1   
    74   71   72 2   
    75   71   83 1   
    76   73   74 1   
    77   73   75 1   
    78   73   78 1   
    79   74   80 1   
    80   74   81 1   
    81   74   82 1   
    82   75   79 1   
    83   83   84 1   
    84   83   91 1   
    85   84   85 1   
    86   84   87 1   
    87   84   92 1   
    88   85   86 2   
    89   85  102 1   
    90   87   88 1   
    91   87   89 1   
    92   87   93 1   
    93   88   90 1   
    94   88   94 1   
    95   88   95 1   
    96   89   96 1   
    97   89   97 1   
    98   89   98 1   
    99   90   99 1   
   100   90  100 1   
   101   90  101 1   
   102  102  103 1   
   103  102  110 1   
   104  103  104 1   
   105  103  106 1   
   106  103  111 1   
   107  104  105 2   
   108  104  114 1   
   109  106  107 1   
   110  106  112 1   
   111  106  113 1   
   112  107  108 1   
   113  107  109 1   
   114  114  115 1   
   115  114  125 1   
   116  115  116 1   
   117  115  118 1   
   118  115  126 1   
   119  116  117 2   
   120  116  134 1   
   121  118  119 1   
   122  118  127 1   
   123  118  128 1   
   124  119  120 ar  
   125  119  121 ar  
   126  120  122 ar  
   127  120  129 1   
   128  121  123 ar  
   129  121  130 1   
   130  122  124 ar  
   131  122  131 1   
   132  123  124 ar  
   133  123  132 1   
   134  124  133 1   
   135  134  135 1   
   136  134  140 1   
   137  135  136 1   
   138  135  138 1   
   139  135  141 1   
   140  136  137 2   
   141  136  148 1   
   142  138  139 1   
   143  138  142 1   
   144  138  143 1   
   145  139  140 1   
   146  139  144 1   
   147  139  145 1   
   148  140  146 1   
   149  140  147 1   
   150  148  149 1   
   151  148  157 1   
   152  149  150 1   
   153  149  152 1   
   154  149  158 1   
   155  150  151 2   
   156  150  163 1   
   157  152  153 1   
   158  152  159 1   
   159  152  160 1   
   160  153  154 1   
   161  153  161 1   
   162  153  162 1   
   163  154  155 1   
   164  154  156 1   
   165  163  164 1   
   166  163  168 1   
   167  164  165 1   
   168  164  166 1   
   169  164  167 1   
   170  170  171 1   
   171  170  172 1   
   172  173  174 1   
   173  173  175 1   
   174  176  177 1   
   175  176  178 1   
@<TRIPOS>SUBSTRUCTURE
     1 MOL         1 TEMP              0 ****  ****    0 ROOT
