@<TRIPOS>MOLECULE
MOL
  201   193     1     0     0
SMALL
resp


@<TRIPOS>ATOM
      1 C1         -8.8790   -4.2730   -5.7870 c3        1 MOL     -0.450015
      2 C2         -9.0620   -3.7500   -4.3920 c         1 MOL      0.718159
      3 O1        -10.0760   -3.1720   -4.0290 o         1 MOL     -0.566424
      4 H1         -9.2030   -3.5180   -6.5020 hc        1 MOL      0.115742
      5 H2         -7.8270   -4.5030   -5.9540 hc        1 MOL      0.115742
      6 H3         -9.4750   -5.1760   -5.9180 hc        1 MOL      0.115742
      7 N1         -8.0780   -3.9310   -3.4370 n         1 MOL     -0.626206
      8 C3         -8.1840   -3.2720   -2.1550 c3        1 MOL      0.190847
      9 C4         -6.8770   -2.5040   -1.7910 c         1 MOL      0.563078
     10 O2         -5.8070   -2.8550   -2.2680 o         1 MOL     -0.581560
     11 C5         -8.5590   -4.2910   -1.0020 c3        1 MOL     -0.169511
     12 C6         -8.6110   -3.6890    0.4020 c         1 MOL      0.642536
     13 O3         -8.0730   -4.3070    1.3540 o         1 MOL     -0.610345
     14 O4         -9.2240   -2.5470    0.5660 o         1 MOL     -0.610345
     15 H4         -7.2210   -4.3910   -3.7110 hn        1 MOL      0.311484
     16 H5         -8.9260   -2.4810   -2.1870 h1        1 MOL      0.039829
     17 H6         -7.8650   -5.1300   -0.9170 hc        1 MOL      0.044266
     18 H7         -9.5600   -4.7070   -1.1350 hc        1 MOL      0.044266
     19 N2         -7.0260   -1.3920   -1.0330 n         1 MOL     -0.502415
     20 C7         -5.9260   -0.3230   -0.9610 c3        1 MOL      0.137200
     21 C8         -4.6910   -0.5990   -0.0760 c         1 MOL      0.661821
     22 O5         -4.6960   -0.4070    1.1540 o         1 MOL     -0.565486
     23 C9         -6.5710    1.0700   -0.6820 c3        1 MOL     -0.091253
     24 C10        -5.9610    2.2870   -1.4000 c3        1 MOL     -0.231960
     25 C11        -4.5530    2.7520   -1.0420 c3        1 MOL      0.053511
     26 C12        -4.4890    3.4650    0.2930 c3        1 MOL     -0.025063
     27 N3         -3.1260    3.8230    0.5700 n4        1 MOL     -0.105539
     28 H8         -7.9130   -1.3160   -0.5590 hn        1 MOL      0.256964
     29 H9         -5.5520   -0.2840   -1.9850 h1        1 MOL      0.027178
     30 H10        -6.6060    1.2790    0.3870 hc        1 MOL      0.073827
     31 H11        -7.5950    0.9170   -0.9880 hc        1 MOL      0.073827
     32 H12        -6.6030    3.1560   -1.2320 hc        1 MOL      0.064143
     33 H13        -5.9770    2.1620   -2.4830 hc        1 MOL      0.064143
     34 H14        -4.1310    3.2780   -1.9010 hc        1 MOL      0.011010
     35 H15        -4.0220    1.8010   -1.0100 hc        1 MOL      0.011010
     36 H16        -4.7840    2.7880    1.0950 hx        1 MOL      0.075992
     37 H17        -5.0950    4.3790    0.2800 hx        1 MOL      0.075992
     38 H18        -2.4980    3.0270    0.5090 hn        1 MOL      0.214401
     39 H19        -2.6220    4.5130    0.0370 hn        1 MOL      0.214401
     40 H20        -3.1260    4.2660    1.4790 hn        1 MOL      0.214401
     41 N4         -3.6730   -0.9830   -0.7710 n         1 MOL     -0.543776
     42 C13        -2.4140   -1.4180   -0.1120 c3        1 MOL      0.177742
     43 C14        -1.1170   -0.8610   -0.8470 c         1 MOL      0.624503
     44 O6         -1.1090   -0.8820   -2.0810 o         1 MOL     -0.540402
     45 C15        -2.4470   -2.9260   -0.2760 c3        1 MOL     -0.201540
     46 C16        -1.3450   -3.6500    0.4140 c         1 MOL      0.560385
     47 O7         -1.2750   -3.6160    1.6560 o         1 MOL     -0.647917
     48 O8         -0.4780   -4.2390   -0.3270 o         1 MOL     -0.647917
     49 H21        -3.7540   -1.0610   -1.7790 hn        1 MOL      0.310739
     50 H22        -2.4200   -1.1270    0.9490 h1        1 MOL      0.093881
     51 H23        -2.3650   -3.2370   -1.3100 hc        1 MOL      0.082809
     52 H24        -3.4410   -3.2590    0.0430 hc        1 MOL      0.082809
     53 N5         -0.0020   -0.3500   -0.2340 n         1 MOL     -0.647918
     54 C17         0.1060   -0.0110    1.2680 c3        1 MOL      0.082082
     55 C18        -0.8780    0.9930    1.7770 c         1 MOL      0.461351
     56 O9         -1.6470    1.5950    1.0670 o         1 MOL     -0.472732
     57 H25         0.7060    0.0680   -0.8090 hn        1 MOL      0.347846
     58 H26         1.0140    0.5840    1.3570 h1        1 MOL      0.004584
     59 H27         0.0840   -0.8590    1.9400 h1        1 MOL      0.004584
     60 N6         -0.8880    1.0160    3.1160 n         1 MOL     -0.383537
     61 C19        -1.9640    1.7260    3.8540 c3        1 MOL      0.011703
     62 C20        -1.8740    3.2540    3.7810 c         1 MOL      0.426042
     63 O10        -2.8490    3.9540    3.4080 o         1 MOL     -0.498780
     64 C21        -2.0100    1.0660    5.2210 c3        1 MOL     -0.206224
     65 C22        -3.1160    1.6560    6.0380 c         1 MOL      0.654037
     66 O11        -2.8990    2.5600    6.9060 o         1 MOL     -0.638106
     67 O12        -4.3120    1.2110    5.7570 o         1 MOL     -0.638106
     68 H28        -0.1680    0.5540    3.6440 hn        1 MOL      0.270609
     69 H29        -2.9260    1.5810    3.3680 h1        1 MOL      0.157031
     70 H30        -1.0340    1.2420    5.6690 hc        1 MOL      0.035231
     71 H31        -2.2020    0.0110    5.0380 hc        1 MOL      0.035231
     72 N7         -0.6860    3.8360    3.8100 n         1 MOL     -0.222614
     73 C23        -0.2790    5.2480    3.6250 c3        1 MOL     -0.309257
     74 C24        -0.4710    5.6370    2.1300 c         1 MOL      0.324611
     75 O13        -0.3790    4.7670    1.2470 o         1 MOL     -0.228167
     76 H32         0.0510    3.1700    4.0250 hn        1 MOL      0.226773
     77 H33         0.7690    5.3280    3.9120 h1        1 MOL      0.172273
     78 H34        -0.8750    5.8410    4.3200 h1        1 MOL      0.172273
     79 N8         -0.5710    6.9580    1.9350 n         1 MOL     -0.365990
     80 C25        -0.6890    7.6810    0.6570 c3        1 MOL     -0.126376
     81 C26        -1.0580    6.7950   -0.5280 c         1 MOL      0.661003
     82 O14        -2.1140    6.1460   -0.6930 o         1 MOL     -0.548583
     83 C27        -1.6750    8.9250    0.6640 c3        1 MOL      0.335077
     84 C28        -1.3940    9.9620    1.7450 c3        1 MOL     -0.394795
     85 O15        -1.5750    9.5580   -0.6010 oh        1 MOL     -0.544330
     86 H35        -0.6490    7.5610    2.7410 hn        1 MOL      0.281993
     87 H36         0.3370    8.0320    0.5210 h1        1 MOL      0.067545
     88 H37        -2.6730    8.5140    0.8110 h1        1 MOL      0.069966
     89 H38        -0.7440   10.0310   -0.5200 ho        1 MOL      0.354845
     90 H39        -0.3810   10.3130    1.8990 hc        1 MOL      0.112966
     91 H40        -2.1160   10.7780    1.6630 hc        1 MOL      0.112966
     92 H41        -1.6400    9.5580    2.7160 hc        1 MOL      0.112966
     93 N9         -0.0440    6.6290   -1.3390 n         1 MOL     -0.574730
     94 C29        -0.0070    5.5630   -2.3240 c3        1 MOL     -0.007415
     95 C30         0.7390    4.3620   -1.7100 c         1 MOL      0.503516
     96 O16         0.1850    3.2830   -1.5690 o         1 MOL     -0.526690
     97 C31         0.6920    6.0000   -3.6120 c3        1 MOL      0.158628
     98 C32         0.0330    7.2310   -4.2860 c3        1 MOL      0.036671
     99 C33         0.7960    4.8980   -4.7000 c3        1 MOL     -0.366872
    100 C34        -1.5320    7.0690   -4.2270 c3        1 MOL     -0.260507
    101 H42         0.7220    7.2690   -1.2680 hn        1 MOL      0.313244
    102 H43        -0.9890    5.2420   -2.6720 h1        1 MOL      0.119028
    103 H44         1.7050    6.3470   -3.4230 hc        1 MOL     -0.031077
    104 H45         0.3490    7.3580   -5.3120 hc        1 MOL      0.003746
    105 H46         0.3130    8.1750   -3.8150 hc        1 MOL      0.003746
    106 H47         1.5820    4.1890   -4.4380 hc        1 MOL      0.107659
    107 H48        -0.1520    4.3790   -4.8440 hc        1 MOL      0.107659
    108 H49         1.1470    5.3610   -5.6190 hc        1 MOL      0.107659
    109 H50        -1.7790    7.3670   -3.2170 hc        1 MOL      0.079859
    110 H51        -1.9830    7.7180   -4.9840 hc        1 MOL      0.079859
    111 H52        -1.8470    6.0580   -4.5090 hc        1 MOL      0.079859
    112 N10         1.9630    4.5560   -1.2250 n         1 MOL     -0.389313
    113 C35         2.8460    3.5700   -0.6340 c3        1 MOL     -0.057604
    114 C36         4.2490    3.5930   -1.1390 c         1 MOL      0.598995
    115 O17         4.7690    4.6480   -1.4860 o         1 MOL     -0.563496
    116 C37         2.8780    3.6450    0.9370 c3        1 MOL      0.523672
    117 C38         3.2480    4.9770    1.6380 c3        1 MOL     -0.275830
    118 O18         1.7010    3.1910    1.5680 oh        1 MOL     -0.612099
    119 H53         2.3690    5.4770   -1.2380 hn        1 MOL      0.247927
    120 H54         2.5430    2.5850   -0.9760 h1        1 MOL      0.104002
    121 H55         3.6000    2.8620    1.1800 h1        1 MOL     -0.044428
    122 H56         0.9940    3.4920    0.9980 ho        1 MOL      0.312422
    123 H57         2.7740    5.8380    1.1720 hc        1 MOL      0.054426
    124 H58         3.0510    4.9650    2.7120 hc        1 MOL      0.054426
    125 H59         4.3200    5.0910    1.4870 hc        1 MOL      0.054426
    126 N11         4.8560    2.4490   -1.2390 n         1 MOL     -0.465875
    127 C39         6.2110    2.2210   -1.8640 c3        1 MOL     -0.034672
    128 C40         6.3690    0.8410   -2.3800 c         1 MOL      0.561114
    129 O19         6.6680    0.6210   -3.5670 o         1 MOL     -0.537946
    130 C41         7.3240    2.4070   -0.8510 c3        1 MOL      0.169324
    131 C42         8.6730    2.1460   -1.3940 c3        1 MOL     -0.291578
    132 O20         7.0900    1.7100    0.3900 oh        1 MOL     -0.640427
    133 H60         4.3180    1.6540   -0.8970 hn        1 MOL      0.268448
    134 H61         6.2990    2.8730   -2.7380 h1        1 MOL      0.142729
    135 H62         7.3520    3.4700   -0.6100 h1        1 MOL      0.065977
    136 H63         7.3500    2.2400    1.1520 ho        1 MOL      0.426349
    137 H64         8.7040    2.4130   -2.4500 hc        1 MOL      0.097698
    138 H65         9.4740    2.7070   -0.9310 hc        1 MOL      0.097698
    139 H66         8.9250    1.0830   -1.3620 hc        1 MOL      0.097698
    140 N12         6.1530   -0.2290   -1.5700 n         1 MOL     -0.399783
    141 C43         6.3960   -1.6270   -1.7910 c3        1 MOL      0.048914
    142 C44         5.4950   -2.5610   -1.0760 c         1 MOL      0.584556
    143 O21         5.0860   -2.3000    0.0120 o         1 MOL     -0.469620
    144 C45         7.8870   -1.9330   -1.5890 c3        1 MOL     -0.302219
    145 C46         8.4530   -1.7080   -0.1410 c3        1 MOL     -0.074731
    146 C47         9.9400   -2.1100   -0.2110 c3        1 MOL      0.043151
    147 C48        10.5550   -2.0240    1.1450 c3        1 MOL      0.041784
    148 N13        11.7060   -2.9350    1.2680 n4        1 MOL     -0.145100
    149 H67         5.7140   -0.0270   -0.6810 hn        1 MOL      0.246820
    150 H68         6.1820   -1.7570   -2.8510 h1        1 MOL      0.094231
    151 H69         8.5220   -1.4160   -2.3100 hc        1 MOL      0.097748
    152 H70         7.9500   -2.9790   -1.8920 hc        1 MOL      0.097748
    153 H71         7.9110   -2.2900    0.5900 hc        1 MOL      0.078948
    154 H72         8.3590   -0.6740    0.2020 hc        1 MOL      0.078948
    155 H73        10.5520   -1.5690   -0.9360 hc        1 MOL      0.017957
    156 H74         9.9870   -3.1640   -0.4870 hc        1 MOL      0.017957
    157 H75         9.8110   -2.1860    1.9240 hx        1 MOL      0.052881
    158 H76        10.8090   -0.9790    1.3030 hx        1 MOL      0.052881
    159 H77        11.4400   -3.8830    1.5220 hn        1 MOL      0.171457
    160 H78        12.2540   -2.9790    0.4140 hn        1 MOL      0.171457
    161 H79        12.3520   -2.6280    1.9820 hn        1 MOL      0.171457
    162 N14         5.2720   -3.7380   -1.6900 n         1 MOL     -0.487304
    163 C49         4.4230   -4.7500   -1.0120 c3        1 MOL      0.001650
    164 C50         2.9940   -4.2800   -0.6260 c         1 MOL      0.200017
    165 O22         2.6050   -4.4200    0.5440 o         1 MOL     -0.519828
    166 C51         4.3110   -5.9020   -2.0360 c3        1 MOL     -0.310343
    167 C52         3.8720   -7.2200   -1.3230 c3        1 MOL      0.084062
    168 C53         2.3640   -7.1050   -0.9190 c         1 MOL      0.709261
    169 O23         2.0570   -7.1590    0.2660 o         1 MOL     -0.727924
    170 O24         1.5340   -6.8170   -1.7980 o         1 MOL     -0.727924
    171 H80         5.6530   -3.9600   -2.5980 hn        1 MOL      0.294553
    172 H81         4.9510   -5.0980   -0.1220 h1        1 MOL      0.147100
    173 H82         5.2580   -6.0530   -2.5540 hc        1 MOL      0.131670
    174 H83         3.5870   -5.6990   -2.8260 hc        1 MOL      0.131670
    175 H84         4.4770   -7.2550   -0.4220 hc        1 MOL     -0.033581
    176 H85         4.0810   -8.0620   -1.9870 hc        1 MOL     -0.033581
    177 N15         2.1480   -3.5460   -1.3790 n         1 MOL     -0.123048
    178 C54         2.2970   -3.1280   -2.7730 c3        1 MOL     -0.151481
    179 H86         1.8690   -2.1330   -2.9010 h1        1 MOL      0.078400
    180 H87         3.3540   -3.1050   -3.0350 h1        1 MOL      0.078400
    181 H88         1.7760   -3.8320   -3.4220 h1        1 MOL      0.078400
    182 H89         1.2620   -3.4100   -0.9100 hn        1 MOL      0.302640
    183 Ca1         0.6790   -5.7140    1.7370 Ca        1 MOL      1.628205
    184 O25        -0.3210   -5.3790    4.3560 oh        1 MOL     -0.761696
    185 H90        -1.2240   -5.6970    4.4310 ho        1 MOL      0.385586
    186 H91        -0.0800   -5.1270    5.2430 ho        1 MOL      0.385586
    187 O26         0.9700   -3.0420    2.7750 oh        1 MOL     -0.761696
    188 H92         0.9160   -2.5430    3.5800 ho        1 MOL      0.385586
    189 H93         0.0910   -3.0010    2.4080 ho        1 MOL      0.385586
    190 O27        -0.5870   -7.2640   -0.2830 oh        1 MOL     -0.761696
    191 H94         0.0590   -7.2010   -0.9970 ho        1 MOL      0.385586
    192 H95        -1.4250   -7.0880   -0.7040 ho        1 MOL      0.385586
    193 O28        -1.9790   -6.4920    2.0310 oh        1 MOL     -0.761696
    194 H96        -2.0740   -7.3890    1.7210 ho        1 MOL      0.385586
    195 H97        -2.4940   -5.9660    1.4280 ho        1 MOL      0.385586
    196 O29         2.5800   -5.7570    3.6530 oh        1 MOL     -0.761696
    197 H98         3.3760   -5.3010    3.9300 ho        1 MOL      0.385586
    198 H99         2.3880   -6.3670    4.3630 ho        1 MOL      0.385586
    199 O30         0.6270   -8.0500    3.1310 oh        1 MOL     -0.761696
    200 H100        0.2130   -8.5850    3.8150 ho        1 MOL      0.385586
    201 H101        1.5080   -8.4150    3.0480 ho        1 MOL      0.385586
@<TRIPOS>BOND
     1    1    2 1   
     2    1    4 1   
     3    1    5 1   
     4    1    6 1   
     5    2    3 2   
     6    2    7 1   
     7    7    8 1   
     8    7   15 1   
     9    8    9 1   
    10    8   11 1   
    11    8   16 1   
    12    9   10 2   
    13    9   19 1   
    14   11   12 1   
    15   11   17 1   
    16   11   18 1   
    17   12   13 1   
    18   12   14 1   
    19   19   20 1   
    20   19   28 1   
    21   20   21 1   
    22   20   23 1   
    23   20   29 1   
    24   21   22 2   
    25   21   41 1   
    26   23   24 1   
    27   23   30 1   
    28   23   31 1   
    29   24   25 1   
    30   24   32 1   
    31   24   33 1   
    32   25   26 1   
    33   25   34 1   
    34   25   35 1   
    35   26   27 1   
    36   26   36 1   
    37   26   37 1   
    38   27   38 1   
    39   27   39 1   
    40   27   40 1   
    41   41   42 1   
    42   41   49 1   
    43   42   43 1   
    44   42   45 1   
    45   42   50 1   
    46   43   44 2   
    47   43   53 1   
    48   45   46 1   
    49   45   51 1   
    50   45   52 1   
    51   46   47 1   
    52   46   48 1   
    53   53   54 1   
    54   53   57 1   
    55   54   55 1   
    56   54   58 1   
    57   54   59 1   
    58   55   56 2   
    59   55   60 1   
    60   60   61 1   
    61   60   68 1   
    62   61   62 1   
    63   61   64 1   
    64   61   69 1   
    65   62   63 2   
    66   62   72 1   
    67   64   65 1   
    68   64   70 1   
    69   64   71 1   
    70   65   66 1   
    71   65   67 1   
    72   72   73 1   
    73   72   76 1   
    74   73   74 1   
    75   73   77 1   
    76   73   78 1   
    77   74   75 2   
    78   74   79 1   
    79   79   80 1   
    80   79   86 1   
    81   80   81 1   
    82   80   83 1   
    83   80   87 1   
    84   81   82 2   
    85   81   93 1   
    86   83   84 1   
    87   83   85 1   
    88   83   88 1   
    89   84   90 1   
    90   84   91 1   
    91   84   92 1   
    92   85   89 1   
    93   93   94 1   
    94   93  101 1   
    95   94   95 1   
    96   94   97 1   
    97   94  102 1   
    98   95   96 2   
    99   95  112 1   
   100   97   98 1   
   101   97   99 1   
   102   97  103 1   
   103   98  100 1   
   104   98  104 1   
   105   98  105 1   
   106   99  106 1   
   107   99  107 1   
   108   99  108 1   
   109  100  109 1   
   110  100  110 1   
   111  100  111 1   
   112  112  113 1   
   113  112  119 1   
   114  113  114 1   
   115  113  116 1   
   116  113  120 1   
   117  114  115 2   
   118  114  126 1   
   119  116  117 1   
   120  116  118 1   
   121  116  121 1   
   122  117  123 1   
   123  117  124 1   
   124  117  125 1   
   125  118  122 1   
   126  126  127 1   
   127  126  133 1   
   128  127  128 1   
   129  127  130 1   
   130  127  134 1   
   131  128  129 2   
   132  128  140 1   
   133  130  131 1   
   134  130  132 1   
   135  130  135 1   
   136  131  137 1   
   137  131  138 1   
   138  131  139 1   
   139  132  136 1   
   140  140  141 1   
   141  140  149 1   
   142  141  142 1   
   143  141  144 1   
   144  141  150 1   
   145  142  143 2   
   146  142  162 1   
   147  144  145 1   
   148  144  151 1   
   149  144  152 1   
   150  145  146 1   
   151  145  153 1   
   152  145  154 1   
   153  146  147 1   
   154  146  155 1   
   155  146  156 1   
   156  147  148 1   
   157  147  157 1   
   158  147  158 1   
   159  148  159 1   
   160  148  160 1   
   161  148  161 1   
   162  162  163 1   
   163  162  171 1   
   164  163  164 1   
   165  163  166 1   
   166  163  172 1   
   167  164  165 2   
   168  164  177 1   
   169  166  167 1   
   170  166  173 1   
   171  166  174 1   
   172  167  168 1   
   173  167  175 1   
   174  167  176 1   
   175  168  169 1   
   176  168  170 1   
   177  177  178 1   
   178  177  182 1   
   179  178  179 1   
   180  178  180 1   
   181  178  181 1   
   182  184  185 1   
   183  184  186 1   
   184  187  188 1   
   185  187  189 1   
   186  190  191 1   
   187  190  192 1   
   188  193  194 1   
   189  193  195 1   
   190  196  197 1   
   191  196  198 1   
   192  199  200 1   
   193  199  201 1   
@<TRIPOS>SUBSTRUCTURE
     1 MOL         1 TEMP              0 ****  ****    0 ROOT
