@<TRIPOS>MOLECULE
MOL
  185   180     1     0     0
SMALL
resp


@<TRIPOS>ATOM
      1 C1         -4.6440    1.8070   -2.9680 c3        1 MOL     -0.483505
      2 C2         -5.8320    1.9510   -2.0190 c         1 MOL      0.700808
      3 O1         -5.6770    2.1640   -0.8340 o         1 MOL     -0.525638
      4 H1         -3.9800    1.0250   -2.6020 hc        1 MOL      0.103834
      5 H2         -5.0040    1.5420   -3.9630 hc        1 MOL      0.103834
      6 H3         -4.1010    2.7510   -3.0170 hc        1 MOL      0.103834
      7 N1         -6.9450    1.8820   -2.6440 n         1 MOL     -0.493422
      8 C3         -8.3090    1.9750   -2.0280 c3        1 MOL      0.152697
      9 C4         -8.5840    0.9170   -1.0090 c         1 MOL      0.323913
     10 O2         -8.8440    1.2590    0.1640 o         1 MOL     -0.420132
     11 C5         -8.6120    3.3920   -1.6400 c3        1 MOL     -0.342512
     12 C6        -10.0910    3.5540   -1.3630 c         1 MOL      0.705022
     13 O3        -10.5040    4.3220   -0.4510 o         1 MOL     -0.658356
     14 O4        -10.8750    2.9220   -2.0860 o         1 MOL     -0.658356
     15 H4         -6.9430    1.6610   -3.6320 hn        1 MOL      0.305880
     16 H5         -8.9750    1.7430   -2.8530 h1        1 MOL     -0.020364
     17 H6         -8.3330    4.0080   -2.5000 hc        1 MOL      0.116954
     18 H7         -7.9230    3.7640   -0.8850 hc        1 MOL      0.116954
     19 N2         -8.5660   -0.3620   -1.3560 n         1 MOL     -0.248879
     20 C7         -8.7610   -1.5310   -0.5360 c3        1 MOL      0.048798
     21 C8         -7.4620   -2.1410    0.1490 c         1 MOL      0.531608
     22 O5         -7.5310   -3.0670    0.9250 o         1 MOL     -0.583838
     23 C9         -9.4150   -2.6360   -1.3660 c3        1 MOL     -0.171002
     24 C10       -10.8100   -2.3290   -1.7070 c3        1 MOL      0.422397
     25 C11       -11.2780   -3.3860   -2.6630 c3        1 MOL     -0.238837
     26 C12       -12.7520   -3.3190   -3.0730 c3        1 MOL     -0.130894
     27 N3        -13.1270   -2.3070   -4.0940 n4        1 MOL     -0.183941
     28 H8         -8.1450   -0.5250   -2.2580 hn        1 MOL      0.188602
     29 H9         -9.4010   -1.3090    0.3190 h1        1 MOL      0.108797
     30 H10        -9.4360   -3.5510   -0.7730 hc        1 MOL      0.028748
     31 H11        -8.8060   -2.8450   -2.2520 hc        1 MOL      0.028748
     32 H12       -10.8040   -1.3520   -2.1860 hc        1 MOL     -0.061650
     33 H13       -11.3880   -2.2910   -0.7870 hc        1 MOL     -0.061650
     34 H14       -11.1620   -4.3880   -2.2510 hc        1 MOL      0.072596
     35 H15       -10.7290   -3.4650   -3.6050 hc        1 MOL      0.072596
     36 H16       -13.4560   -3.3580   -2.2500 hx        1 MOL      0.134053
     37 H17       -12.8660   -4.3040   -3.5330 hx        1 MOL      0.134053
     38 H18       -12.5100   -2.3820   -4.8970 hn        1 MOL      0.247776
     39 H19       -14.0390   -2.4860   -4.4900 hn        1 MOL      0.247776
     40 H20       -12.9810   -1.3680   -3.7510 hn        1 MOL      0.247776
     41 N4         -6.3040   -1.6680   -0.1190 n         1 MOL     -0.362185
     42 C13        -4.9940   -2.0270    0.5500 c3        1 MOL     -0.029291
     43 C14        -5.0100   -1.8360    2.0160 c         1 MOL      0.613788
     44 O6         -5.4740   -0.7770    2.4410 o         1 MOL     -0.517661
     45 C15        -3.9490   -1.0680   -0.1200 c3        1 MOL     -0.063264
     46 C16        -2.4740   -1.5070    0.1770 c         1 MOL      0.597665
     47 O7         -2.0890   -1.8360    1.3910 o         1 MOL     -0.659260
     48 O8         -1.7090   -1.7580   -0.7970 o         1 MOL     -0.659260
     49 H21        -6.2230   -0.9340   -0.8160 hn        1 MOL      0.198773
     50 H22        -4.7550   -3.0720    0.3370 h1        1 MOL      0.041435
     51 H23        -4.0350   -0.0450    0.2460 hc        1 MOL      0.047097
     52 H24        -4.0440   -1.1650   -1.1970 hc        1 MOL      0.047097
     53 N5         -4.5630   -2.7970    2.8200 n         1 MOL     -0.268202
     54 C17        -4.7380   -2.6240    4.2860 c3        1 MOL     -0.190317
     55 C18        -3.6500   -1.7910    5.0540 c         1 MOL      0.500438
     56 O9         -3.6220   -1.6990    6.3080 o         1 MOL     -0.554811
     57 H25        -4.2920   -3.6630    2.3740 hn        1 MOL      0.216754
     58 H26        -4.8080   -3.6350    4.6910 h1        1 MOL      0.114833
     59 H27        -5.7330   -2.2000    4.4790 h1        1 MOL      0.114833
     60 N6         -2.7230   -1.2660    4.2730 n         1 MOL     -0.159880
     61 C19        -1.7610   -0.2840    4.6810 c3        1 MOL      0.007610
     62 C20        -1.5170    0.9140    3.6990 c         1 MOL      0.387880
     63 O10        -1.4110    2.0650    4.1860 o         1 MOL     -0.524941
     64 C21        -0.4700   -0.9560    5.2240 c3        1 MOL     -0.078078
     65 C22         0.6200   -1.3890    4.2830 c         1 MOL      0.599946
     66 N7          1.8500   -1.0260    4.5170 n         1 MOL     -0.737381
     67 O11         0.3680   -2.0700    3.2760 o         1 MOL     -0.582613
     68 H28        -2.7300   -1.6060    3.3290 hn        1 MOL      0.100523
     69 H29        -2.1830    0.2190    5.5560 h1        1 MOL      0.096244
     70 H30        -0.7980   -1.7960    5.8260 hc        1 MOL      0.042476
     71 H31        -0.0010   -0.2870    5.9420 hc        1 MOL      0.042476
     72 H32         2.1670   -0.5260    5.3370 hn        1 MOL      0.367347
     73 H33         2.5350   -1.3610    3.8600 hn        1 MOL      0.367347
     74 N8         -1.3920    0.7520    2.4070 n         1 MOL     -0.013158
     75 C23        -1.1540    1.7720    1.3630 c3        1 MOL     -0.328177
     76 C24         0.2200    2.4060    1.3100 c         1 MOL      0.598620
     77 O12         1.0850    2.2280    2.1900 o         1 MOL     -0.526831
     78 H34        -1.5120   -0.1510    1.9800 hn        1 MOL      0.003985
     79 H35        -1.9440    2.5280    1.3850 h1        1 MOL      0.170531
     80 H36        -1.3710    1.2830    0.4080 h1        1 MOL      0.170531
     81 N9          0.4930    2.9950    0.1200 n         1 MOL     -0.441941
     82 C25         1.6440    3.7070   -0.2650 c3        1 MOL      0.133137
     83 C26         2.7160    2.7260   -0.8370 c         1 MOL      0.401016
     84 O13         2.4050    1.6890   -1.4260 o         1 MOL     -0.529065
     85 C27         1.2300    4.7260   -1.4030 c3        1 MOL     -0.083412
     86 C28         0.1450    5.6490   -0.9210 ca        1 MOL     -0.026363
     87 C29        -1.2800    5.3270   -1.0490 ca        1 MOL     -0.134556
     88 C30         0.4660    6.8200   -0.1860 ca        1 MOL     -0.134556
     89 C31        -2.2600    6.0340   -0.3540 ca        1 MOL     -0.272124
     90 C32        -0.5440    7.6620    0.3580 ca        1 MOL     -0.272124
     91 C33        -1.9120    7.2150    0.4120 ca        1 MOL      0.340377
     92 O14        -2.8760    7.8880    1.0150 oh        1 MOL     -0.408164
     93 H37        -0.3010    2.8520   -0.4790 hn        1 MOL      0.282105
     94 H38         2.0690    4.1890    0.6100 h1        1 MOL      0.064621
     95 H39         0.9580    4.1600   -2.2950 hc        1 MOL      0.069657
     96 H40         2.0600    5.3520   -1.7270 hc        1 MOL      0.069657
     97 H41        -1.6620    4.4470   -1.5590 ha        1 MOL      0.113248
     98 H42         1.5040    7.0640   -0.0610 ha        1 MOL      0.113248
     99 H43        -3.2640    5.6300   -0.3700 ha        1 MOL      0.155184
    100 H44        -0.2510    8.5810    0.8420 ha        1 MOL      0.155184
    101 H45        -2.5130    8.6330    1.4820 ho        1 MOL      0.343881
    102 N10         3.9460    3.1450   -0.8630 n         1 MOL     -0.427463
    103 C34         5.1120    2.4390   -1.4130 c3        1 MOL      0.304151
    104 C35         5.8220    1.7780   -0.2890 c         1 MOL      0.412869
    105 O15         5.7360    0.5490   -0.1730 o         1 MOL     -0.479886
    106 C36         5.9730    3.3380   -2.2620 c3        1 MOL      0.174708
    107 C37         5.1660    4.3570   -3.1170 c3        1 MOL      0.008704
    108 C38         7.0100    2.4450   -3.0200 c3        1 MOL     -0.376150
    109 C39         4.1330    3.8430   -4.1880 c3        1 MOL     -0.154745
    110 H46         4.1810    3.9960   -0.3690 hn        1 MOL      0.214816
    111 H47         4.8180    1.6400   -2.0910 h1        1 MOL      0.028350
    112 H48         6.4520    3.9690   -1.5100 hc        1 MOL     -0.085535
    113 H49         5.9310    4.8980   -3.6760 hc        1 MOL     -0.009793
    114 H50         4.6490    5.1410   -2.5640 hc        1 MOL     -0.009793
    115 H51         7.8140    3.0670   -3.4050 hc        1 MOL      0.100683
    116 H52         7.5360    1.7180   -2.4000 hc        1 MOL      0.100683
    117 H53         6.5380    1.8920   -3.8180 hc        1 MOL      0.100683
    118 H54         3.6610    4.5890   -4.8220 hc        1 MOL      0.049460
    119 H55         4.5980    3.0730   -4.8100 hc        1 MOL      0.049460
    120 H56         3.3640    3.2510   -3.7060 hc        1 MOL      0.049460
    121 N11         6.4700    2.5750    0.5870 n         1 MOL     -0.380187
    122 C40         7.3130    2.0180    1.6750 c3        1 MOL      0.100417
    123 C41         8.7170    1.5570    1.2860 c         1 MOL      0.167319
    124 O16         9.3500    0.8530    2.0470 o         1 MOL     -0.429272
    125 C42         7.4270    2.9180    2.9000 c3        1 MOL      0.237429
    126 O17         6.2500    3.6830    3.0490 oh        1 MOL     -0.607724
    127 H57         6.3370    3.5680    0.5060 hn        1 MOL      0.253433
    128 H58         6.7930    1.0990    1.9600 h1        1 MOL      0.140338
    129 H59         8.2470    3.6310    2.8080 h1        1 MOL      0.007943
    130 H60         7.5550    2.2980    3.7850 h1        1 MOL      0.007943
    131 H61         6.5730    4.4480    3.5250 ho        1 MOL      0.393327
    132 N12         9.0170    1.7870   -0.0160 n         1 MOL     -0.030426
    133 C43        10.1010    1.0250   -0.6790 c3        1 MOL      0.097562
    134 C44         9.9440   -0.5110   -0.6220 c         1 MOL      0.557252
    135 O18        10.8980   -1.2480   -0.5160 o         1 MOL     -0.512427
    136 C45        11.4200    1.6120   -0.2800 c3        1 MOL     -0.274212
    137 H62         8.6020    2.5340   -0.5460 hn        1 MOL      0.130407
    138 H63        10.1190    1.3500   -1.7100 h1        1 MOL      0.041604
    139 H64        12.1910    1.4000   -1.0190 hc        1 MOL      0.075173
    140 H65        11.3700    2.6800   -0.0890 hc        1 MOL      0.075173
    141 H66        11.7770    1.0950    0.6110 hc        1 MOL      0.075173
    142 N13         8.6610   -0.8770   -0.6520 n         1 MOL     -0.604807
    143 C46         8.1100   -2.2230   -0.3970 c3        1 MOL      0.555312
    144 C47         7.0700   -2.8180   -1.3170 c         1 MOL      0.333918
    145 O19         6.4660   -2.0560   -2.1080 o         1 MOL     -0.463078
    146 C48         7.4710   -2.2370    1.0260 c3        1 MOL     -0.150381
    147 H67         7.9720   -0.1410   -0.7670 hn        1 MOL      0.139679
    148 H68         8.9590   -2.9070   -0.4600 h1        1 MOL     -0.062675
    149 H69         7.5730   -3.2600    1.3900 hc        1 MOL      0.037141
    150 H70         8.0280   -1.5760    1.6990 hc        1 MOL      0.037141
    151 H71         6.4860   -1.7860    1.0020 hc        1 MOL      0.037141
    152 N14         6.7360   -4.1160   -1.1800 n         1 MOL     -0.424153
    153 C49         5.8460   -4.9210   -2.0290 c3        1 MOL      0.092505
    154 C50         5.9940   -4.8000   -3.5220 c         1 MOL      0.409334
    155 O20         5.0590   -4.9180   -4.3130 o         1 MOL     -0.474926
    156 C51         4.4410   -4.6490   -1.4820 c3        1 MOL      0.031078
    157 C52         4.2460   -4.6420    0.0860 c3        1 MOL      0.088121
    158 C53         2.7620   -4.3210    0.4430 c         1 MOL      0.658176
    159 O21         1.8350   -5.1190    0.1490 o         1 MOL     -0.742893
    160 O22         2.5720   -3.4660    1.3250 o         1 MOL     -0.742893
    161 H72         7.2210   -4.6360   -0.4580 hn        1 MOL      0.259022
    162 H73         6.0650   -5.9660   -1.8180 h1        1 MOL      0.039307
    163 H74         3.7730   -5.4090   -1.9000 hc        1 MOL     -0.006586
    164 H75         4.1190   -3.7090   -1.9310 hc        1 MOL     -0.006586
    165 H76         4.9520   -3.9750    0.5650 hc        1 MOL     -0.034770
    166 H77         4.5330   -5.6150    0.4710 hc        1 MOL     -0.034770
    167 N15         7.2550   -4.5190   -3.9760 n         1 MOL     -0.288896
    168 C54         7.6200   -3.8510   -5.2370 c3        1 MOL     -0.208296
    169 H78         7.0040   -2.9620   -5.3670 h1        1 MOL      0.110365
    170 H79         8.6710   -3.5630   -5.2050 h1        1 MOL      0.110365
    171 H80         7.4540   -4.5340   -6.0700 h1        1 MOL      0.110365
    172 H81         7.9450   -4.6370   -3.2430 hn        1 MOL      0.203809
    173 Ca1         0.1060   -3.0280    0.7920 Ca        1 MOL      1.760552
    174 O23        -0.9940   -4.8480   -0.6980 oh        1 MOL     -0.871885
    175 H82        -1.8080   -4.8620   -1.2030 ho        1 MOL      0.430751
    176 H83        -0.4370   -5.5150   -1.1170 ho        1 MOL      0.430751
    177 O24        -1.0970   -4.8260    2.4040 oh        1 MOL     -0.871885
    178 H84        -1.6760   -5.3990    1.8960 ho        1 MOL      0.430751
    179 H85        -1.1280   -5.1910    3.2920 ho        1 MOL      0.430751
    180 O25         1.4690   -2.5700   -1.7660 oh        1 MOL     -0.871885
    181 H86         0.8880   -2.5430   -2.5200 ho        1 MOL      0.430751
    182 H87         2.2860   -2.1730   -2.0730 ho        1 MOL      0.430751
    183 O26         1.0410   -0.5510    0.5240 oh        1 MOL     -0.871885
    184 H88         1.5620   -0.2700   -0.2310 ho        1 MOL      0.430751
    185 H89         1.2860    0.0490    1.2190 ho        1 MOL      0.430751
@<TRIPOS>BOND
     1    1    2 1   
     2    1    4 1   
     3    1    5 1   
     4    1    6 1   
     5    2    3 2   
     6    2    7 1   
     7    7    8 1   
     8    7   15 1   
     9    8    9 1   
    10    8   11 1   
    11    8   16 1   
    12    9   10 2   
    13    9   19 1   
    14   11   12 1   
    15   11   17 1   
    16   11   18 1   
    17   12   13 1   
    18   12   14 1   
    19   19   20 1   
    20   19   28 1   
    21   20   21 1   
    22   20   23 1   
    23   20   29 1   
    24   21   22 2   
    25   21   41 1   
    26   23   24 1   
    27   23   30 1   
    28   23   31 1   
    29   24   25 1   
    30   24   32 1   
    31   24   33 1   
    32   25   26 1   
    33   25   34 1   
    34   25   35 1   
    35   26   27 1   
    36   26   36 1   
    37   26   37 1   
    38   27   38 1   
    39   27   39 1   
    40   27   40 1   
    41   41   42 1   
    42   41   49 1   
    43   42   43 1   
    44   42   45 1   
    45   42   50 1   
    46   43   44 2   
    47   43   53 1   
    48   45   46 1   
    49   45   51 1   
    50   45   52 1   
    51   46   47 1   
    52   46   48 1   
    53   53   54 1   
    54   53   57 1   
    55   54   55 1   
    56   54   58 1   
    57   54   59 1   
    58   55   56 2   
    59   55   60 1   
    60   60   61 1   
    61   60   68 1   
    62   61   62 1   
    63   61   64 1   
    64   61   69 1   
    65   62   63 2   
    66   62   74 1   
    67   64   65 1   
    68   64   70 1   
    69   64   71 1   
    70   65   66 1   
    71   65   67 2   
    72   66   72 1   
    73   66   73 1   
    74   74   75 1   
    75   74   78 1   
    76   75   76 1   
    77   75   79 1   
    78   75   80 1   
    79   76   77 2   
    80   76   81 1   
    81   81   82 1   
    82   81   93 1   
    83   82   83 1   
    84   82   85 1   
    85   82   94 1   
    86   83   84 2   
    87   83  102 1   
    88   85   86 1   
    89   85   95 1   
    90   85   96 1   
    91   86   87 ar  
    92   86   88 ar  
    93   87   89 ar  
    94   87   97 1   
    95   88   90 ar  
    96   88   98 1   
    97   89   91 ar  
    98   89   99 1   
    99   90   91 ar  
   100   90  100 1   
   101   91   92 1   
   102   92  101 1   
   103  102  103 1   
   104  102  110 1   
   105  103  104 1   
   106  103  106 1   
   107  103  111 1   
   108  104  105 2   
   109  104  121 1   
   110  106  107 1   
   111  106  108 1   
   112  106  112 1   
   113  107  109 1   
   114  107  113 1   
   115  107  114 1   
   116  108  115 1   
   117  108  116 1   
   118  108  117 1   
   119  109  118 1   
   120  109  119 1   
   121  109  120 1   
   122  121  122 1   
   123  121  127 1   
   124  122  123 1   
   125  122  125 1   
   126  122  128 1   
   127  123  124 2   
   128  123  132 1   
   129  125  126 1   
   130  125  129 1   
   131  125  130 1   
   132  126  131 1   
   133  132  133 1   
   134  132  137 1   
   135  133  134 1   
   136  133  136 1   
   137  133  138 1   
   138  134  135 2   
   139  134  142 1   
   140  136  139 1   
   141  136  140 1   
   142  136  141 1   
   143  142  143 1   
   144  142  147 1   
   145  143  144 1   
   146  143  146 1   
   147  143  148 1   
   148  144  145 2   
   149  144  152 1   
   150  146  149 1   
   151  146  150 1   
   152  146  151 1   
   153  152  153 1   
   154  152  161 1   
   155  153  154 1   
   156  153  156 1   
   157  153  162 1   
   158  154  155 2   
   159  154  167 1   
   160  156  157 1   
   161  156  163 1   
   162  156  164 1   
   163  157  158 1   
   164  157  165 1   
   165  157  166 1   
   166  158  159 1   
   167  158  160 1   
   168  167  168 1   
   169  167  172 1   
   170  168  169 1   
   171  168  170 1   
   172  168  171 1   
   173  174  175 1   
   174  174  176 1   
   175  177  178 1   
   176  177  179 1   
   177  180  181 1   
   178  180  182 1   
   179  183  184 1   
   180  183  185 1   
@<TRIPOS>SUBSTRUCTURE
     1 MOL         1 TEMP              0 ****  ****    0 ROOT
