@<TRIPOS>MOLECULE
MOL
  175   173     1     0     0
SMALL
resp


@<TRIPOS>ATOM
      1 C1          6.8100   -7.3390    2.2670 c3        1 MOL     -0.378750
      2 C2          7.5770   -6.7250    1.1750 c         1 MOL      0.724000
      3 O1          7.5910   -7.2660    0.0400 o         1 MOL     -0.600051
      4 H1          6.2300   -6.5720    2.7790 hc        1 MOL      0.087712
      5 H2          6.1350   -8.0920    1.8580 hc        1 MOL      0.087712
      6 H3          7.4950   -7.8090    2.9740 hc        1 MOL      0.087712
      7 N1          8.2370   -5.5930    1.4050 n         1 MOL     -0.469046
      8 C3          9.2100   -4.9500    0.5220 c3        1 MOL      0.096727
      9 C4          8.5910   -3.8470   -0.3220 c         1 MOL      0.590428
     10 O2          9.2580   -3.2450   -1.1060 o         1 MOL     -0.495381
     11 C5         10.4880   -4.5200    1.1770 c3        1 MOL     -0.092122
     12 C6         11.7240   -4.1430    0.3390 c         1 MOL      0.644688
     13 O3         12.1300   -5.0380   -0.4510 o         1 MOL     -0.711829
     14 O4         12.2400   -3.0050    0.5480 o         1 MOL     -0.711829
     15 H4          8.0830   -5.0300    2.2360 hn        1 MOL      0.249314
     16 H5          9.3590   -5.7880   -0.1620 h1        1 MOL      0.051157
     17 H6         10.6830   -5.3150    1.9000 hc        1 MOL     -0.016636
     18 H7         10.2870   -3.6720    1.8230 hc        1 MOL     -0.016636
     19 N2          7.2850   -3.5990   -0.1440 n         1 MOL     -0.635719
     20 C7          6.5270   -2.6500   -0.8650 c3        1 MOL      0.455878
     21 C8          5.3370   -2.1640   -0.0520 c         1 MOL      0.437126
     22 O5          4.8530   -2.8390    0.8660 o         1 MOL     -0.521730
     23 C9          6.0880   -3.1310   -2.2140 c3        1 MOL     -0.178458
     24 H8          6.7620   -4.2390    0.4300 hn        1 MOL      0.241072
     25 H9          7.2520   -1.8780   -1.1190 h1        1 MOL     -0.045276
     26 H10         6.8930   -3.6500   -2.7350 hc        1 MOL      0.044990
     27 H11         5.1440   -3.6780   -2.2920 hc        1 MOL      0.044990
     28 H12         5.9670   -2.2160   -2.8090 hc        1 MOL      0.044990
     29 N3          4.8230   -0.9240   -0.3090 n         1 MOL     -0.502243
     30 C10         5.1430    0.0270   -1.4150 c3        1 MOL      0.013219
     31 C11         5.3470    1.4770   -0.9300 c         1 MOL      0.409045
     32 O6          4.6960    1.9110    0.0400 o         1 MOL     -0.495761
     33 C12         3.9720    0.0060   -2.4320 c3        1 MOL     -0.083392
     34 C13         2.5700    0.2610   -1.8590 c         1 MOL      0.775582
     35 O7          1.9190    1.1840   -2.3250 o         1 MOL     -0.777034
     36 O8          2.2360   -0.2010   -0.7570 o         1 MOL     -0.777034
     37 H13         4.0320   -0.6460    0.2510 hn        1 MOL      0.355453
     38 H14         6.0120   -0.2910   -1.9940 h1        1 MOL      0.089272
     39 H15         3.9740   -0.9730   -2.8970 hc        1 MOL     -0.000527
     40 H16         4.2420    0.7820   -3.1470 hc        1 MOL     -0.000527
     41 N4          6.1720    2.2750   -1.6020 n         1 MOL     -0.362399
     42 C14         6.2450    3.7240   -1.3610 c3        1 MOL      0.101521
     43 C15         5.7760    4.5790   -2.5530 c         1 MOL      0.435555
     44 O9          6.5720    4.9720   -3.4340 o         1 MOL     -0.545502
     45 H17         6.7000    1.8870   -2.3660 hn        1 MOL      0.295108
     46 H18         7.2710    3.9930   -1.1060 h1        1 MOL      0.032145
     47 H19         5.6440    3.9740   -0.4840 h1        1 MOL      0.032145
     48 N5          4.4800    4.7140   -2.7690 n         1 MOL     -0.388014
     49 C16         3.3740    4.5220   -1.8260 c3        1 MOL     -0.013400
     50 C17         3.5350    5.3320   -0.5870 c         1 MOL      0.554353
     51 O10         3.6400    6.5520   -0.6510 o         1 MOL     -0.562275
     52 C18         2.0780    4.9490   -2.6150 c3        1 MOL     -0.169747
     53 C19         0.9080    4.2220   -1.9170 c         1 MOL      0.613325
     54 N6         -0.2860    4.1600   -2.4640 n         1 MOL     -0.699122
     55 O11         1.0020    3.6700   -0.8560 o         1 MOL     -0.541104
     56 H20         4.2150    5.2690   -3.5720 hn        1 MOL      0.282917
     57 H21         3.3800    3.4630   -1.5760 h1        1 MOL      0.130445
     58 H22         2.0550    4.5600   -3.6260 hc        1 MOL      0.085984
     59 H23         1.9300    6.0330   -2.6030 hc        1 MOL      0.085984
     60 H24        -0.4580    4.7560   -3.2650 hn        1 MOL      0.326888
     61 H25        -0.9860    3.5880   -2.0080 hn        1 MOL      0.326888
     62 N7          3.4600    4.6820    0.5750 n         1 MOL     -0.128769
     63 C20         3.4000    5.3190    1.8490 c3        1 MOL     -0.330846
     64 C21         1.9920    5.6580    2.3870 c         1 MOL      0.599934
     65 O12         1.8710    6.5220    3.2600 o         1 MOL     -0.561413
     66 H26         3.3160    3.6920    0.4770 hn        1 MOL      0.200327
     67 H27         3.9720    6.2500    1.8720 h1        1 MOL      0.128509
     68 H28         3.7750    4.6560    2.6270 h1        1 MOL      0.128509
     69 N8          0.9340    5.1240    1.7540 n         1 MOL     -0.258165
     70 C22        -0.5310    5.3960    2.0480 c3        1 MOL     -0.279251
     71 C23        -1.3020    4.0560    1.9970 c         1 MOL      0.580830
     72 O13        -0.7630    3.0440    1.4500 o         1 MOL     -0.585982
     73 C24        -1.0900    6.4880    1.0620 c3        1 MOL      0.394332
     74 C25        -0.4460    7.8490    1.0710 c3        1 MOL     -0.617502
     75 O14        -0.7020    6.0990   -0.2400 oh        1 MOL     -0.489313
     76 H29         1.0880    4.5120    0.9640 hn        1 MOL      0.240740
     77 H30        -0.5530    5.7880    3.0620 h1        1 MOL      0.135566
     78 H31        -2.1790    6.5160    1.0610 h1        1 MOL      0.021758
     79 H32        -0.2760    5.2460   -0.0990 ho        1 MOL      0.181760
     80 H33        -1.0390    8.4870    0.4140 hc        1 MOL      0.171447
     81 H34        -0.4030    8.3060    2.0660 hc        1 MOL      0.171447
     82 H35         0.5770    7.6910    0.7090 hc        1 MOL      0.171447
     83 N9         -2.5400    4.0900    2.4720 n         1 MOL     -0.352959
     84 C26        -3.4120    2.9480    2.6370 c3        1 MOL      0.020848
     85 C27        -4.6000    3.0930    1.6660 c         1 MOL      0.457470
     86 O15        -5.4370    4.0700    1.8040 o         1 MOL     -0.557888
     87 C28        -3.9150    2.8550    4.1270 c3        1 MOL      0.204082
     88 C29        -4.9050    1.6880    4.2720 c3        1 MOL      0.090808
     89 C30        -2.6350    2.6690    4.9920 c3        1 MOL     -0.402000
     90 C31        -4.4850    0.4030    3.6690 c3        1 MOL     -0.030803
     91 H36        -2.9400    4.8840    2.9560 hn        1 MOL      0.252939
     92 H37        -2.8980    2.0690    2.2480 h1        1 MOL      0.054988
     93 H38        -4.3820    3.7910    4.4110 hc        1 MOL     -0.025254
     94 H39        -5.8380    1.9690    3.7820 hc        1 MOL     -0.044761
     95 H40        -5.0200    1.6370    5.3520 hc        1 MOL     -0.044761
     96 H41        -3.0110    2.5510    6.0140 hc        1 MOL      0.102605
     97 H42        -2.1900    1.7050    4.7430 hc        1 MOL      0.102605
     98 H43        -1.9380    3.5070    5.0020 hc        1 MOL      0.102605
     99 H44        -4.4650    0.5200    2.5910 hc        1 MOL     -0.001128
    100 H45        -3.5230    0.0220    4.0360 hc        1 MOL     -0.001128
    101 H46        -5.2970   -0.2900    3.9010 hc        1 MOL     -0.001128
    102 N10        -4.6230    2.2100    0.6440 n         1 MOL     -0.383870
    103 C32        -5.2960    2.4520   -0.6650 c3        1 MOL      0.062934
    104 C33        -5.8170    1.1780   -1.2770 c         1 MOL      0.375826
    105 O16        -6.1750    1.2010   -2.4670 o         1 MOL     -0.491387
    106 C34        -4.2700    3.1360   -1.6670 c3        1 MOL     -0.192354
    107 C35        -2.9930    2.3400   -2.0100 c         1 MOL      0.803347
    108 O17        -1.9700    2.4370   -1.3210 o         1 MOL     -0.691453
    109 O18        -3.0130    1.6060   -3.0300 o         1 MOL     -0.691453
    110 H47        -3.8280    1.5930    0.5260 hn        1 MOL      0.314388
    111 H48        -6.1580    3.0890   -0.4690 h1        1 MOL      0.097919
    112 H49        -3.9800    4.0200   -1.0920 hc        1 MOL      0.050438
    113 H50        -4.7510    3.4990   -2.5750 hc        1 MOL      0.050438
    114 N11        -5.8600    0.0350   -0.5310 n         1 MOL     -0.264680
    115 C36        -6.4280   -1.1990   -1.0630 c3        1 MOL      0.073003
    116 C37        -5.8510   -2.5440   -0.4490 c         1 MOL      0.441325
    117 O19        -5.7820   -2.6020    0.7980 o         1 MOL     -0.481161
    118 C38        -7.9760   -1.0860   -0.9200 c3        1 MOL     -0.306792
    119 C39        -8.5630   -2.2090   -1.7350 ca        1 MOL      0.209157
    120 C40        -8.8850   -3.5100   -1.2970 ca        1 MOL     -0.220347
    121 C41        -8.9240   -1.8850   -3.0620 ca        1 MOL     -0.220347
    122 C42        -9.4710   -4.4330   -2.1750 ca        1 MOL     -0.068587
    123 C43        -9.5060   -2.8580   -3.9890 ca        1 MOL     -0.068587
    124 C44        -9.7700   -4.1370   -3.4870 ca        1 MOL     -0.188175
    125 H51        -5.4840    0.0040    0.4030 hn        1 MOL      0.194722
    126 H52        -6.2880   -1.1810   -2.1430 h1        1 MOL      0.077308
    127 H53        -8.3560   -0.1340   -1.2860 hc        1 MOL      0.115505
    128 H54        -8.2320   -1.3210    0.1080 hc        1 MOL      0.115505
    129 H55        -8.7610   -3.7840   -0.2580 ha        1 MOL      0.136235
    130 H56        -8.5990   -0.9390   -3.4810 ha        1 MOL      0.136235
    131 H57        -9.8520   -5.3840   -1.8610 ha        1 MOL      0.107266
    132 H58        -9.6680   -2.6260   -5.0300 ha        1 MOL      0.107266
    133 H59       -10.1750   -4.9350   -4.0990 ha        1 MOL      0.117318
    134 N12        -5.6640   -3.5830   -1.2720 n         1 MOL     -0.067249
    135 C45        -5.5210   -4.9810   -0.7740 c3        1 MOL     -0.118070
    136 C46        -4.5810   -5.2230    0.4110 c         1 MOL      0.403493
    137 O20        -4.8580   -6.0800    1.2230 o         1 MOL     -0.500108
    138 C47        -5.2580   -5.8590   -1.9950 c3        1 MOL      0.129302
    139 C48        -6.0310   -5.1260   -2.9890 c3        1 MOL      0.064108
    140 C49        -5.7770   -3.6120   -2.7030 c3        1 MOL     -0.420259
    141 H60        -6.5050   -5.3240   -0.4380 h1        1 MOL      0.074094
    142 H61        -4.2000   -5.9670   -2.2440 hc        1 MOL      0.004120
    143 H62        -5.6550   -6.8730   -1.9430 hc        1 MOL      0.004120
    144 H63        -5.6660   -5.4180   -3.9670 hc        1 MOL      0.015540
    145 H64        -7.0880   -5.3500   -2.8580 hc        1 MOL      0.015540
    146 H65        -4.7760   -3.3060   -3.0170 h1        1 MOL      0.169107
    147 H66        -6.5630   -2.9990   -3.1470 h1        1 MOL      0.169107
    148 N13        -3.5230   -4.3690    0.5190 n         1 MOL     -0.283459
    149 C50        -2.5490   -4.4000    1.5820 c3        1 MOL     -0.131597
    150 C51        -3.1480   -4.5280    2.9720 c         1 MOL      0.590667
    151 O21        -2.4620   -5.1310    3.8200 o         1 MOL     -0.585071
    152 C52        -1.7500   -3.1460    1.4570 c3        1 MOL      0.016461
    153 C53        -2.4440   -1.8100    1.8600 c3        1 MOL      0.072471
    154 C54        -1.6850   -0.6510    1.3250 c         1 MOL      0.559435
    155 O22        -2.2140    0.0870    0.4500 o         1 MOL     -0.707361
    156 O23        -0.4790   -0.4990    1.6240 o         1 MOL     -0.707361
    157 H67        -3.4230   -3.6690   -0.2100 hn        1 MOL      0.230488
    158 H68        -1.7960   -5.1660    1.3740 h1        1 MOL      0.098013
    159 H69        -1.2820   -3.1220    0.4770 hc        1 MOL      0.039778
    160 H70        -0.8470   -3.2430    2.0730 hc        1 MOL      0.039778
    161 H71        -2.4620   -1.8150    2.9550 hc        1 MOL     -0.030462
    162 H72        -3.4870   -1.7950    1.5370 hc        1 MOL     -0.030462
    163 N14        -4.3810   -4.1010    3.2080 n         1 MOL     -0.252197
    164 C55        -4.9870   -4.3250    4.5380 c3        1 MOL     -0.201251
    165 H73        -5.5530   -3.4410    4.8320 h1        1 MOL      0.091775
    166 H74        -5.6560   -5.1840    4.4930 h1        1 MOL      0.091775
    167 H75        -4.2020   -4.5120    5.2700 h1        1 MOL      0.091775
    168 H76        -4.8830   -3.7510    2.4110 hn        1 MOL      0.256512
    169 Ca1         0.1310    1.2770   -0.2080 Ca        1 MOL      1.761762
    170 O24        -0.7680   -0.0140   -2.3510 oh        1 MOL     -0.881793
    171 H77        -1.5160    0.4050   -2.7750 ho        1 MOL      0.411761
    172 H78        -0.3810   -0.5520   -3.0410 ho        1 MOL      0.411761
    173 O25         2.3410    1.9090    1.3590 oh        1 MOL     -0.881793
    174 H79         3.2340    2.0660    1.0630 ho        1 MOL      0.411761
    175 H80         2.4180    1.1850    1.9780 ho        1 MOL      0.411761
@<TRIPOS>BOND
     1    1    2 1   
     2    1    4 1   
     3    1    5 1   
     4    1    6 1   
     5    2    3 2   
     6    2    7 1   
     7    7    8 1   
     8    7   15 1   
     9    8    9 1   
    10    8   11 1   
    11    8   16 1   
    12    9   10 2   
    13    9   19 1   
    14   11   12 1   
    15   11   17 1   
    16   11   18 1   
    17   12   13 1   
    18   12   14 1   
    19   19   20 1   
    20   19   24 1   
    21   20   21 1   
    22   20   23 1   
    23   20   25 1   
    24   21   22 2   
    25   21   29 1   
    26   23   26 1   
    27   23   27 1   
    28   23   28 1   
    29   29   30 1   
    30   29   37 1   
    31   30   31 1   
    32   30   33 1   
    33   30   38 1   
    34   31   32 2   
    35   31   41 1   
    36   33   34 1   
    37   33   39 1   
    38   33   40 1   
    39   34   35 1   
    40   34   36 1   
    41   41   42 1   
    42   41   45 1   
    43   42   43 1   
    44   42   46 1   
    45   42   47 1   
    46   43   44 2   
    47   43   48 1   
    48   48   49 1   
    49   48   56 1   
    50   49   50 1   
    51   49   52 1   
    52   49   57 1   
    53   50   51 2   
    54   50   62 1   
    55   52   53 1   
    56   52   58 1   
    57   52   59 1   
    58   53   54 1   
    59   53   55 2   
    60   54   60 1   
    61   54   61 1   
    62   62   63 1   
    63   62   66 1   
    64   63   64 1   
    65   63   67 1   
    66   63   68 1   
    67   64   65 2   
    68   64   69 1   
    69   69   70 1   
    70   69   76 1   
    71   70   71 1   
    72   70   73 1   
    73   70   77 1   
    74   71   72 2   
    75   71   83 1   
    76   73   74 1   
    77   73   75 1   
    78   73   78 1   
    79   74   80 1   
    80   74   81 1   
    81   74   82 1   
    82   75   79 1   
    83   83   84 1   
    84   83   91 1   
    85   84   85 1   
    86   84   87 1   
    87   84   92 1   
    88   85   86 2   
    89   85  102 1   
    90   87   88 1   
    91   87   89 1   
    92   87   93 1   
    93   88   90 1   
    94   88   94 1   
    95   88   95 1   
    96   89   96 1   
    97   89   97 1   
    98   89   98 1   
    99   90   99 1   
   100   90  100 1   
   101   90  101 1   
   102  102  103 1   
   103  102  110 1   
   104  103  104 1   
   105  103  106 1   
   106  103  111 1   
   107  104  105 2   
   108  104  114 1   
   109  106  107 1   
   110  106  112 1   
   111  106  113 1   
   112  107  108 1   
   113  107  109 1   
   114  114  115 1   
   115  114  125 1   
   116  115  116 1   
   117  115  118 1   
   118  115  126 1   
   119  116  117 2   
   120  116  134 1   
   121  118  119 1   
   122  118  127 1   
   123  118  128 1   
   124  119  120 ar  
   125  119  121 ar  
   126  120  122 ar  
   127  120  129 1   
   128  121  123 ar  
   129  121  130 1   
   130  122  124 ar  
   131  122  131 1   
   132  123  124 ar  
   133  123  132 1   
   134  124  133 1   
   135  134  135 1   
   136  134  140 1   
   137  135  136 1   
   138  135  138 1   
   139  135  141 1   
   140  136  137 2   
   141  136  148 1   
   142  138  139 1   
   143  138  142 1   
   144  138  143 1   
   145  139  140 1   
   146  139  144 1   
   147  139  145 1   
   148  140  146 1   
   149  140  147 1   
   150  148  149 1   
   151  148  157 1   
   152  149  150 1   
   153  149  152 1   
   154  149  158 1   
   155  150  151 2   
   156  150  163 1   
   157  152  153 1   
   158  152  159 1   
   159  152  160 1   
   160  153  154 1   
   161  153  161 1   
   162  153  162 1   
   163  154  155 1   
   164  154  156 1   
   165  163  164 1   
   166  163  168 1   
   167  164  165 1   
   168  164  166 1   
   169  164  167 1   
   170  170  171 1   
   171  170  172 1   
   172  173  174 1   
   173  173  175 1   
@<TRIPOS>SUBSTRUCTURE
     1 MOL         1 TEMP              0 ****  ****    0 ROOT
