@<TRIPOS>MOLECULE
MOL
  192   187     1     0     0
SMALL
resp


@<TRIPOS>ATOM
      1 C1          9.2510    0.9450    1.6880 c3        1 MOL     -0.549136
      2 C2          8.1300    0.4410    0.8700 c         1 MOL      0.867662
      3 O1          7.0460    0.3800    1.4100 o         1 MOL     -0.702520
      4 H1         10.0250    1.3470    1.0330 hc        1 MOL      0.126392
      5 H2          8.8930    1.7320    2.3520 hc        1 MOL      0.126392
      6 H3          9.6650    0.1300    2.2800 hc        1 MOL      0.126392
      7 N1          8.3860    0.1170   -0.3380 n         1 MOL     -0.595875
      8 C3          7.4180   -0.1890   -1.3970 c3        1 MOL      0.005608
      9 C4          6.7470   -1.5660   -1.1990 c         1 MOL      0.390755
     10 O2          6.4330   -2.2490   -2.1040 o         1 MOL     -0.404546
     11 C5          8.0390   -0.0700   -2.8360 c3        1 MOL     -0.260999
     12 C6          9.2390   -1.0300   -3.1810 c         1 MOL      0.732638
     13 O3          9.6830   -0.9370   -4.3490 o         1 MOL     -0.646864
     14 O4          9.8240   -1.6400   -2.3100 o         1 MOL     -0.646864
     15 H4          9.3340   -0.1010   -0.6380 hn        1 MOL      0.300925
     16 H5          6.5860    0.5080   -1.4450 h1        1 MOL      0.133069
     17 H6          8.3170    0.9780   -2.9460 hc        1 MOL      0.087221
     18 H7          7.2240   -0.1190   -3.5580 hc        1 MOL      0.087221
     19 N2          6.5470   -2.0030    0.0360 n         1 MOL     -0.350656
     20 C7          5.9790   -3.3450    0.3280 c3        1 MOL      0.000597
     21 C8          4.5210   -3.5720   -0.1470 c         1 MOL      0.441541
     22 O5          4.3570   -4.4970   -0.9260 o         1 MOL     -0.490897
     23 C9          6.1860   -3.6430    1.7830 c3        1 MOL      0.000343
     24 C10         7.6870   -3.7370    2.0920 c3        1 MOL      0.069481
     25 C11         7.7220   -4.2080    3.6190 c3        1 MOL      0.014115
     26 C12         9.1920   -4.0250    4.1160 c3        1 MOL     -0.123068
     27 N3          9.4130   -4.5040    5.5150 n4        1 MOL     -0.014630
     28 H8          6.9160   -1.4870    0.8300 hn        1 MOL      0.301466
     29 H9          6.5770   -3.9890   -0.3180 h1        1 MOL      0.103964
     30 H10         5.7010   -4.5880    2.0410 hc        1 MOL     -0.003704
     31 H11         5.7550   -2.8800    2.4360 hc        1 MOL     -0.003704
     32 H12         8.0830   -2.7210    2.0480 hc        1 MOL      0.006405
     33 H13         8.1840   -4.4680    1.4710 hc        1 MOL      0.006405
     34 H14         7.4510   -5.2640    3.6160 hc        1 MOL      0.025821
     35 H15         7.0810   -3.6480    4.3000 hc        1 MOL      0.025821
     36 H16         9.3070   -2.9490    4.1160 hx        1 MOL      0.097317
     37 H17         9.8210   -4.6160    3.4500 hx        1 MOL      0.097317
     38 H18         9.1900   -5.4950    5.5610 hn        1 MOL      0.193188
     39 H19        10.2920   -4.3320    5.9780 hn        1 MOL      0.193188
     40 H20         8.6870   -4.1530    6.1090 hn        1 MOL      0.193188
     41 N4          3.5210   -2.7460    0.1780 n         1 MOL     -0.328190
     42 C13         3.5810   -1.5080    0.9800 c3        1 MOL     -0.001871
     43 C14         3.8940   -0.2230    0.1530 c         1 MOL      0.420998
     44 O6          3.9900   -0.1910   -1.1040 o         1 MOL     -0.423103
     45 C15         2.4120   -1.2800    1.9160 c3        1 MOL     -0.404927
     46 C16         1.0350   -1.4340    1.2600 c         1 MOL      0.985673
     47 O7          0.5860   -0.6980    0.4040 o         1 MOL     -0.759873
     48 O8          0.2670   -2.3600    1.6010 o         1 MOL     -0.759873
     49 H21         2.5870   -3.0620   -0.0330 hn        1 MOL      0.278254
     50 H22         4.4480   -1.6690    1.6300 h1        1 MOL      0.097063
     51 H23         2.4150   -0.3070    2.4030 hc        1 MOL      0.091110
     52 H24         2.3670   -1.9950    2.7460 hc        1 MOL      0.091110
     53 N5          4.0260    0.9420    0.8280 n         1 MOL     -0.398294
     54 C17         3.9990    2.2870    0.2390 c3        1 MOL      0.006202
     55 C18         2.7070    2.8230   -0.4630 c         1 MOL      0.185303
     56 O9          1.6190    2.2270   -0.4260 o         1 MOL     -0.191422
     57 H25         3.9930    0.8460    1.8340 hn        1 MOL      0.289391
     58 H26         4.7900    2.3740   -0.4990 h1        1 MOL      0.084345
     59 H27         4.3340    2.9970    0.9910 h1        1 MOL      0.084345
     60 N6          2.8750    3.9990   -1.0370 n         1 MOL     -0.283174
     61 C19         1.8700    4.8760   -1.5860 c3        1 MOL      0.175650
     62 C20         2.3410    6.3220   -1.5720 c         1 MOL      0.425094
     63 O10         3.5340    6.6310   -1.8560 o         1 MOL     -0.518538
     64 C21         1.6300    4.5720   -3.0580 c3        1 MOL     -0.170081
     65 C22         1.2560    3.1140   -3.3100 c         1 MOL      0.594130
     66 O11         2.0130    2.2020   -3.8140 o         1 MOL     -0.639045
     67 O12         0.1060    2.6870   -2.9460 o         1 MOL     -0.639045
     68 H28         3.8100    4.3880   -1.0670 hn        1 MOL      0.252172
     69 H29         0.8990    4.6820   -1.1140 h1        1 MOL     -0.086262
     70 H30         2.6170    4.6240   -3.5220 hc        1 MOL      0.059812
     71 H31         0.8620    5.1770   -3.5400 hc        1 MOL      0.059812
     72 N7          1.5070    7.2670   -1.2410 n         1 MOL     -0.392182
     73 C23         0.0200    7.2320   -1.4890 c3        1 MOL     -0.027587
     74 C24        -0.7240    6.4140   -0.4040 c         1 MOL      0.526444
     75 O13        -0.3730    6.3920    0.7520 o         1 MOL     -0.466271
     76 H32         1.9870    8.1060   -0.9410 hn        1 MOL      0.300306
     77 H33        -0.1320    6.9360   -2.5230 h1        1 MOL      0.087271
     78 H34        -0.3870    8.2410   -1.5520 h1        1 MOL      0.087271
     79 N8         -1.8180    5.7830   -0.7710 n         1 MOL     -0.436389
     80 C25        -2.5500    5.0740    0.1590 c3        1 MOL     -0.065062
     81 C26        -1.8050    3.8530    0.7940 c         1 MOL      0.278837
     82 O14        -1.1720    3.0850    0.0520 o         1 MOL     -0.529037
     83 C27        -3.9950    4.6400   -0.4310 c3        1 MOL      0.270689
     84 C28        -4.7950    3.8660    0.5820 c3        1 MOL     -0.210329
     85 O15        -3.8650    3.8570   -1.5670 oh        1 MOL     -0.604968
     86 H35        -2.0940    5.7330   -1.7400 hn        1 MOL      0.269743
     87 H36        -2.7820    5.7940    0.9390 h1        1 MOL      0.106678
     88 H37        -4.5830    5.5300   -0.6870 h1        1 MOL      0.036920
     89 H38        -3.8290    4.4270   -2.3420 ho        1 MOL      0.434349
     90 H39        -4.2540    2.9460    0.7990 hc        1 MOL      0.072703
     91 H40        -4.8780    4.3800    1.5440 hc        1 MOL      0.072703
     92 H41        -5.8100    3.7250    0.2180 hc        1 MOL      0.072703
     93 N9         -1.8260    3.6830    2.1480 n         1 MOL     -0.360662
     94 C29        -1.3540    2.5110    2.8970 c3        1 MOL     -0.144628
     95 C30        -1.9630    1.1570    2.4980 c         1 MOL      0.646128
     96 O16        -2.0190    0.8140    1.2950 o         1 MOL     -0.529698
     97 C31         0.2440    2.4840    2.9080 c3        1 MOL      0.953703
     98 C32         0.9520    3.8240    2.7410 c3        1 MOL     -0.281828
     99 C33         0.8490    1.7850    4.1410 c3        1 MOL     -0.392509
    100 C34         0.6120    4.8690    3.8700 c3        1 MOL     -0.216880
    101 H42        -2.3880    4.3600    2.6560 hn        1 MOL      0.292679
    102 H43        -1.5540    2.7600    3.9400 h1        1 MOL      0.010319
    103 H44         0.5210    1.8680    2.0510 hc        1 MOL     -0.402071
    104 H45         0.6390    4.3280    1.8220 hc        1 MOL      0.109640
    105 H46         2.0240    3.6510    2.7160 hc        1 MOL      0.109640
    106 H47         0.5250    2.3880    4.9870 hc        1 MOL      0.056824
    107 H48         0.3680    0.8160    4.1460 hc        1 MOL      0.056824
    108 H49         1.9320    1.7780    4.0200 hc        1 MOL      0.056824
    109 H50         0.4570    4.4260    4.8520 hc        1 MOL      0.044884
    110 H51         1.4300    5.5800    3.9110 hc        1 MOL      0.044884
    111 H52        -0.2780    5.4120    3.5260 hc        1 MOL      0.044884
    112 N10        -2.2270    0.3000    3.4740 n         1 MOL     -0.518711
    113 C35        -2.5380   -1.1540    3.1950 c3        1 MOL      0.043356
    114 C36        -4.0160   -1.3850    2.7980 c         1 MOL      0.492812
    115 O17        -4.4380   -2.4960    2.6590 o         1 MOL     -0.539657
    116 C37        -1.9470   -2.1290    4.2360 c3        1 MOL      0.526610
    117 C38        -2.3300   -1.6710    5.6070 c3        1 MOL     -0.478425
    118 O18        -0.5450   -2.1940    4.2130 oh        1 MOL     -0.640509
    119 H53        -2.1310    0.6430    4.4130 hn        1 MOL      0.259059
    120 H54        -2.1270   -1.3970    2.2140 h1        1 MOL      0.080527
    121 H55        -2.3640   -3.0630    3.8870 h1        1 MOL     -0.033004
    122 H56        -0.2460   -2.1650    3.3060 ho        1 MOL      0.357898
    123 H57        -3.4070   -1.5350    5.6920 hc        1 MOL      0.113465
    124 H58        -1.9280   -2.3770    6.3350 hc        1 MOL      0.113465
    125 H59        -1.8310   -0.7210    5.7930 hc        1 MOL      0.113465
    126 N11        -4.8140   -0.3290    2.5680 n         1 MOL     -0.288826
    127 C39        -6.1360   -0.4430    2.0230 c3        1 MOL     -0.238523
    128 C40        -6.0350   -1.0630    0.5710 c         1 MOL      0.568234
    129 O19        -5.5040   -0.4590   -0.3670 o         1 MOL     -0.505795
    130 C41        -7.0580    0.7980    2.1050 c3        1 MOL      0.411583
    131 C42        -8.4920    0.3790    1.8000 c3        1 MOL     -0.052057
    132 O20        -7.1560    1.3330    3.3930 oh        1 MOL     -0.612689
    133 H60        -4.3610    0.5420    2.8110 hn        1 MOL      0.162493
    134 H61        -6.6230   -1.2050    2.6480 h1        1 MOL      0.112405
    135 H62        -6.8370    1.6030    1.4010 h1        1 MOL     -0.042383
    136 H63        -6.3040    1.7460    3.5580 ho        1 MOL      0.392416
    137 H64        -8.8350   -0.5630    2.2380 hc        1 MOL      0.010954
    138 H65        -9.2100    1.1250    2.1310 hc        1 MOL      0.010954
    139 H66        -8.6870    0.2750    0.7270 hc        1 MOL      0.010954
    140 N12        -6.4910   -2.3530    0.4170 n         1 MOL     -0.303601
    141 C43        -6.8210   -3.0060   -0.8760 c3        1 MOL      0.127723
    142 C44        -5.7170   -3.0470   -1.9300 c         1 MOL      0.616662
    143 O21        -5.9070   -2.7280   -3.0830 o         1 MOL     -0.534090
    144 C45        -8.1710   -2.5300   -1.5230 c3        1 MOL     -0.313578
    145 C46        -9.3610   -2.7450   -0.4930 c3        1 MOL      0.117971
    146 C47       -10.7530   -2.2700   -0.9550 c3        1 MOL     -0.043205
    147 C48       -11.7360   -2.5870    0.2090 c3        1 MOL      0.107978
    148 N13       -13.1060   -2.1540   -0.0310 n4        1 MOL     -0.146001
    149 H67        -6.7240   -2.7980    1.2950 hn        1 MOL      0.218297
    150 H68        -7.0080   -4.0630   -0.7080 h1        1 MOL      0.045953
    151 H69        -8.4180   -3.0560   -2.4410 hc        1 MOL      0.107429
    152 H70        -8.0480   -1.4490   -1.6290 hc        1 MOL      0.107429
    153 H71        -9.1080   -2.2350    0.4390 hc        1 MOL     -0.017274
    154 H72        -9.4000   -3.8110   -0.2340 hc        1 MOL     -0.017274
    155 H73       -11.1410   -2.8630   -1.7820 hc        1 MOL      0.029780
    156 H74       -10.8330   -1.2240   -1.2390 hc        1 MOL      0.029780
    157 H75       -11.3720   -2.0420    1.0740 hx        1 MOL      0.027331
    158 H76       -11.6790   -3.6460    0.4620 hx        1 MOL      0.027331
    159 H77       -13.4170   -2.4880   -0.9340 hn        1 MOL      0.175309
    160 H78       -13.6750   -2.6480    0.6350 hn        1 MOL      0.175309
    161 H79       -13.2890   -1.1580    0.0470 hn        1 MOL      0.175309
    162 N14        -4.4210   -3.2790   -1.5150 n         1 MOL     -0.805529
    163 C49        -3.1900   -2.9300   -2.2690 c3        1 MOL      0.762028
    164 C50        -2.1240   -2.4960   -1.2360 c         1 MOL      0.273606
    165 O22        -1.8990   -1.2870   -1.2570 o         1 MOL     -0.533317
    166 C51        -2.7440   -3.9890   -3.2540 c3        1 MOL     -0.527396
    167 C52        -1.7290   -3.3770   -4.2050 c3        1 MOL     -0.076446
    168 C53        -1.1310   -4.5390   -5.1350 c         1 MOL      0.680278
    169 O23         0.0080   -4.5040   -5.6540 o         1 MOL     -0.590654
    170 O24        -1.9740   -5.4120   -5.4490 o         1 MOL     -0.590654
    171 H80        -4.3040   -3.3910   -0.5180 hn        1 MOL      0.291951
    172 H81        -3.4970   -2.0110   -2.7810 h1        1 MOL      0.007931
    173 H82        -3.6790   -4.2100   -3.7790 hc        1 MOL      0.126173
    174 H83        -2.3840   -4.8950   -2.7670 hc        1 MOL      0.126173
    175 H84        -0.9830   -2.8460   -3.5980 hc        1 MOL      0.030118
    176 H85        -2.2680   -2.6750   -4.8440 hc        1 MOL      0.030118
    177 N15        -1.6270   -3.3260   -0.3330 n         1 MOL     -0.197674
    178 C54        -1.9420   -4.7660   -0.0840 c3        1 MOL     -0.163551
    179 H86        -3.0210   -4.9160   -0.1410 h1        1 MOL      0.077919
    180 H87        -1.4500   -5.3820   -0.8360 h1        1 MOL      0.077919
    181 H88        -1.5890   -5.0500    0.9080 h1        1 MOL      0.077919
    182 H89        -0.9710   -2.9650    0.3340 hn        1 MOL      0.284575
    183 Ca1        -0.6550    0.9130   -1.2090 Ca        1 MOL      1.711231
    184 O25        -1.4650   -0.2380   -3.7330 oh        1 MOL     -0.899533
    185 H90        -0.9260   -0.4910   -4.4910 ho        1 MOL      0.426627
    186 H91        -2.3340   -0.0670   -4.1030 ho        1 MOL      0.426627
    187 O26        -3.1800    1.3110   -1.9410 oh        1 MOL     -0.899533
    188 H92        -4.0650    0.9600   -1.9670 ho        1 MOL      0.426627
    189 H93        -3.2950    2.2290   -1.6930 ho        1 MOL      0.426627
    190 O27         1.5270    0.0420   -2.5830 oh        1 MOL     -0.899533
    191 H94         2.3450   -0.1610   -2.1360 ho        1 MOL      0.426627
    192 H95         1.7120    0.8570   -3.0620 ho        1 MOL      0.426627
@<TRIPOS>BOND
     1    1    2 1   
     2    1    4 1   
     3    1    5 1   
     4    1    6 1   
     5    2    3 2   
     6    2    7 1   
     7    7    8 1   
     8    7   15 1   
     9    8    9 1   
    10    8   11 1   
    11    8   16 1   
    12    9   10 2   
    13    9   19 1   
    14   11   12 1   
    15   11   17 1   
    16   11   18 1   
    17   12   13 1   
    18   12   14 1   
    19   19   20 1   
    20   19   28 1   
    21   20   21 1   
    22   20   23 1   
    23   20   29 1   
    24   21   22 2   
    25   21   41 1   
    26   23   24 1   
    27   23   30 1   
    28   23   31 1   
    29   24   25 1   
    30   24   32 1   
    31   24   33 1   
    32   25   26 1   
    33   25   34 1   
    34   25   35 1   
    35   26   27 1   
    36   26   36 1   
    37   26   37 1   
    38   27   38 1   
    39   27   39 1   
    40   27   40 1   
    41   41   42 1   
    42   41   49 1   
    43   42   43 1   
    44   42   45 1   
    45   42   50 1   
    46   43   44 2   
    47   43   53 1   
    48   45   46 1   
    49   45   51 1   
    50   45   52 1   
    51   46   47 1   
    52   46   48 1   
    53   53   54 1   
    54   53   57 1   
    55   54   55 1   
    56   54   58 1   
    57   54   59 1   
    58   55   56 2   
    59   55   60 1   
    60   60   61 1   
    61   60   68 1   
    62   61   62 1   
    63   61   64 1   
    64   61   69 1   
    65   62   63 2   
    66   62   72 1   
    67   64   65 1   
    68   64   70 1   
    69   64   71 1   
    70   65   66 1   
    71   65   67 1   
    72   72   73 1   
    73   72   76 1   
    74   73   74 1   
    75   73   77 1   
    76   73   78 1   
    77   74   75 2   
    78   74   79 1   
    79   79   80 1   
    80   79   86 1   
    81   80   81 1   
    82   80   83 1   
    83   80   87 1   
    84   81   82 2   
    85   81   93 1   
    86   83   84 1   
    87   83   85 1   
    88   83   88 1   
    89   84   90 1   
    90   84   91 1   
    91   84   92 1   
    92   85   89 1   
    93   93   94 1   
    94   93  101 1   
    95   94   95 1   
    96   94   97 1   
    97   94  102 1   
    98   95   96 2   
    99   95  112 1   
   100   97   98 1   
   101   97   99 1   
   102   97  103 1   
   103   98  100 1   
   104   98  104 1   
   105   98  105 1   
   106   99  106 1   
   107   99  107 1   
   108   99  108 1   
   109  100  109 1   
   110  100  110 1   
   111  100  111 1   
   112  112  113 1   
   113  112  119 1   
   114  113  114 1   
   115  113  116 1   
   116  113  120 1   
   117  114  115 2   
   118  114  126 1   
   119  116  117 1   
   120  116  118 1   
   121  116  121 1   
   122  117  123 1   
   123  117  124 1   
   124  117  125 1   
   125  118  122 1   
   126  126  127 1   
   127  126  133 1   
   128  127  128 1   
   129  127  130 1   
   130  127  134 1   
   131  128  129 2   
   132  128  140 1   
   133  130  131 1   
   134  130  132 1   
   135  130  135 1   
   136  131  137 1   
   137  131  138 1   
   138  131  139 1   
   139  132  136 1   
   140  140  141 1   
   141  140  149 1   
   142  141  142 1   
   143  141  144 1   
   144  141  150 1   
   145  142  143 2   
   146  142  162 1   
   147  144  145 1   
   148  144  151 1   
   149  144  152 1   
   150  145  146 1   
   151  145  153 1   
   152  145  154 1   
   153  146  147 1   
   154  146  155 1   
   155  146  156 1   
   156  147  148 1   
   157  147  157 1   
   158  147  158 1   
   159  148  159 1   
   160  148  160 1   
   161  148  161 1   
   162  162  163 1   
   163  162  171 1   
   164  163  164 1   
   165  163  166 1   
   166  163  172 1   
   167  164  165 2   
   168  164  177 1   
   169  166  167 1   
   170  166  173 1   
   171  166  174 1   
   172  167  168 1   
   173  167  175 1   
   174  167  176 1   
   175  168  169 1   
   176  168  170 1   
   177  177  178 1   
   178  177  182 1   
   179  178  179 1   
   180  178  180 1   
   181  178  181 1   
   182  184  185 1   
   183  184  186 1   
   184  187  188 1   
   185  187  189 1   
   186  190  191 1   
   187  190  192 1   
@<TRIPOS>SUBSTRUCTURE
     1 MOL         1 TEMP              0 ****  ****    0 ROOT
