@<TRIPOS>MOLECULE
MOL
  194   186     1     0     0
SMALL
resp


@<TRIPOS>ATOM
      1 C1          1.9670    0.7580    2.2930 c3        1 MOL     -0.385607
      2 C2          3.1810    0.4090    1.4070 c         1 MOL      0.775256
      3 O1          3.1670    0.7890    0.2210 o         1 MOL     -0.614088
      4 H1          2.0030    0.1660    3.2080 hc        1 MOL      0.086490
      5 H2          1.9920    1.8180    2.5450 hc        1 MOL      0.086490
      6 H3          1.0460    0.5340    1.7530 hc        1 MOL      0.086490
      7 N1          4.1130   -0.3450    1.9720 n         1 MOL     -0.571509
      8 C3          5.3220   -0.7790    1.2450 c3        1 MOL      0.016643
      9 C4          5.5870   -2.2440    1.0870 c         1 MOL      0.441312
     10 O2          6.4020   -2.5550    0.2370 o         1 MOL     -0.375892
     11 C5          6.5630   -0.1580    1.8780 c3        1 MOL     -0.147458
     12 C6          6.8480   -0.5780    3.3670 c         1 MOL      0.703158
     13 O3          5.9040   -1.0560    4.0530 o         1 MOL     -0.694846
     14 O4          7.9300   -0.3350    3.9230 o         1 MOL     -0.694846
     15 H4          4.0930   -0.5380    2.9620 hn        1 MOL      0.296844
     16 H5          5.3050   -0.3260    0.2490 h1        1 MOL      0.083877
     17 H6          6.3060    0.8990    1.8440 hc        1 MOL      0.047047
     18 H7          7.4400   -0.3650    1.2590 hc        1 MOL      0.047047
     19 N2          4.8950   -3.0720    1.8990 n         1 MOL     -0.323858
     20 C7          4.9680   -4.5220    1.7920 c3        1 MOL     -0.028430
     21 C8          5.0260   -5.0710    0.3380 c         1 MOL      0.647821
     22 O5          5.9700   -5.7100   -0.1610 o         1 MOL     -0.533836
     23 C9          6.1890   -4.8930    2.5950 c3        1 MOL     -0.050869
     24 C10         6.0640   -4.7240    4.0840 c3        1 MOL      0.065174
     25 C11         7.4510   -4.9430    4.7350 c3        1 MOL     -0.083266
     26 C12         7.4380   -5.2620    6.2290 c3        1 MOL     -0.066074
     27 N3          8.7040   -5.9280    6.7160 n4        1 MOL     -0.277143
     28 H8          4.2010   -2.6840    2.5210 hn        1 MOL      0.265186
     29 H9          4.1760   -5.1140    2.2320 h1        1 MOL      0.073311
     30 H10         7.0660   -4.3330    2.2650 hc        1 MOL      0.002119
     31 H11         6.3740   -5.9430    2.3710 hc        1 MOL      0.002119
     32 H12         5.3600   -5.3880    4.5910 hc        1 MOL     -0.002964
     33 H13         5.6870   -3.7560    4.3950 hc        1 MOL     -0.002964
     34 H14         8.0230   -4.0170    4.6830 hc        1 MOL      0.083315
     35 H15         7.9210   -5.7710    4.2180 hc        1 MOL      0.083315
     36 H16         6.5900   -5.8900    6.4840 hx        1 MOL      0.110636
     37 H17         7.4310   -4.2950    6.7030 hx        1 MOL      0.110636
     38 H18         9.5210   -5.4530    6.3680 hn        1 MOL      0.295843
     39 H19         8.7370   -5.9860    7.7250 hn        1 MOL      0.295843
     40 H20         8.6570   -6.8960    6.4490 hn        1 MOL      0.295843
     41 N4          4.0570   -4.5810   -0.5070 n         1 MOL     -0.581788
     42 C13         3.8650   -4.6690   -1.9610 c3        1 MOL      0.460557
     43 C14         4.4240   -3.4590   -2.8270 c         1 MOL      0.336160
     44 O6          3.8600   -3.1180   -3.8610 o         1 MOL     -0.531255
     45 C15         2.4550   -5.1400   -2.3180 c3        1 MOL     -0.153373
     46 C16         1.9890   -6.3730   -1.5690 c         1 MOL      0.641627
     47 O7          2.5280   -7.4400   -1.9590 o         1 MOL     -0.669253
     48 O8          1.2660   -6.3080   -0.5380 o         1 MOL     -0.669253
     49 H21         3.5440   -3.7860   -0.1630 hn        1 MOL      0.210941
     50 H22         4.3830   -5.5690   -2.2910 h1        1 MOL      0.005354
     51 H23         2.5160   -5.3490   -3.3940 hc        1 MOL     -0.002449
     52 H24         1.7500   -4.3250   -2.1900 hc        1 MOL     -0.002449
     53 N5          5.4340   -2.7730   -2.2710 n         1 MOL     -0.340122
     54 C17         6.0870   -1.6100   -2.7980 c3        1 MOL      0.221563
     55 C18         7.5930   -1.6910   -2.8210 c         1 MOL      0.451032
     56 O9          8.1820   -2.7570   -2.9260 o         1 MOL     -0.510417
     57 H25         5.9630   -3.1100   -1.4760 hn        1 MOL      0.167018
     58 H26         5.7320   -0.7710   -2.2030 h1        1 MOL      0.018141
     59 H27         5.8170   -1.3040   -3.8130 h1        1 MOL      0.018141
     60 N6          8.3030   -0.5960   -2.6400 n         1 MOL     -0.503099
     61 C19         7.8600    0.8180   -2.7050 c3        1 MOL      0.506550
     62 C20         7.8570    1.4370   -1.2550 c         1 MOL      0.266467
     63 O10         8.8630    1.3550   -0.4950 o         1 MOL     -0.513911
     64 C21         8.7850    1.6450   -3.6240 c3        1 MOL     -0.418042
     65 C22         8.5880    1.3560   -5.0790 c         1 MOL      0.677849
     66 N7          7.3590    1.3130   -5.4650 n         1 MOL     -0.752579
     67 O11         9.4810    1.1000   -5.7920 o         1 MOL     -0.540785
     68 H28         9.3090   -0.6680   -2.5880 hn        1 MOL      0.310945
     69 H29         6.8570    0.9100   -3.1000 h1        1 MOL     -0.125025
     70 H30         9.7680    1.4240   -3.2070 hc        1 MOL      0.106705
     71 H31         8.5360    2.6960   -3.4830 hc        1 MOL      0.106705
     72 H32         6.7400    1.6270   -4.7240 hn        1 MOL      0.358831
     73 H33         7.1780    1.3380   -6.4530 hn        1 MOL      0.358831
     74 N8          6.8680    2.1250   -0.7910 n         1 MOL     -0.279008
     75 C23         5.4820    2.2730   -1.3610 c3        1 MOL      0.018591
     76 C24         4.6620    3.4380   -0.6870 c         1 MOL      0.574529
     77 O12         5.1760    4.0890    0.1680 o         1 MOL     -0.525925
     78 H34         6.9590    2.5910    0.1120 hn        1 MOL      0.266233
     79 H35         4.9340    1.3370   -1.2890 h1        1 MOL      0.003538
     80 H36         5.5980    2.5850   -2.4040 h1        1 MOL      0.003538
     81 N9          3.3690    3.5730   -1.0100 n         1 MOL     -0.414897
     82 C25         2.4790    4.5880   -0.5110 c3        1 MOL      0.085030
     83 C26         1.0230    4.1540   -0.3270 c         1 MOL      0.575907
     84 O13         0.5610    3.0660   -0.7730 o         1 MOL     -0.492922
     85 C27         2.7290    5.9050   -1.2920 c3        1 MOL     -0.217431
     86 C28         2.1460    7.1570   -0.5300 ca        1 MOL      0.082499
     87 C29         0.8970    7.7030   -0.9320 ca        1 MOL     -0.099737
     88 C30         2.9290    7.7010    0.4420 ca        1 MOL     -0.099737
     89 C31         0.5040    8.9000   -0.3620 ca        1 MOL     -0.314940
     90 C32         2.5000    8.9140    1.0730 ca        1 MOL     -0.314940
     91 C33         1.2830    9.5260    0.6670 ca        1 MOL      0.338836
     92 O14         0.7810   10.6470    1.2970 oh        1 MOL     -0.492042
     93 H37         2.9990    2.9230   -1.6860 hn        1 MOL      0.260487
     94 H38         2.8320    4.7750    0.5060 h1        1 MOL      0.066826
     95 H39         2.2330    5.8240   -2.2580 hc        1 MOL      0.071616
     96 H40         3.7710    6.1020   -1.5450 hc        1 MOL      0.071616
     97 H41         0.2860    7.3260   -1.7330 ha        1 MOL      0.136349
     98 H42         3.9370    7.3760    0.6140 ha        1 MOL      0.136349
     99 H43        -0.4360    9.3340   -0.6630 ha        1 MOL      0.157619
    100 H44         3.0940    9.3050    1.8950 ha        1 MOL      0.157619
    101 H45         1.3700   10.9410    1.9940 ho        1 MOL      0.366950
    102 N10         0.2720    4.9850    0.5280 n         1 MOL     -0.231460
    103 C34        -1.0410    4.6040    1.0140 c3        1 MOL     -0.656917
    104 C35        -2.1140    4.8290   -0.0740 c         1 MOL      0.705194
    105 O15        -2.0120    5.6930   -0.8970 o         1 MOL     -0.527727
    106 C36        -1.3380    5.5170    2.2370 c3        1 MOL      0.443546
    107 C37        -1.1110    4.7950    3.5980 c3        1 MOL     -0.025056
    108 C38        -0.6820    6.8570    2.3370 c3        1 MOL      0.041063
    109 C39        -1.8030    5.4340    4.8020 c3        1 MOL     -0.313616
    110 H46         0.7880    5.7280    0.9760 hn        1 MOL      0.172085
    111 H47        -1.0830    3.5760    1.3710 h1        1 MOL      0.182452
    112 H48        -2.4180    5.6100    2.2610 hc        1 MOL     -0.047322
    113 H49        -0.0720    4.6240    3.8630 hc        1 MOL      0.026568
    114 H50        -1.5380    3.8040    3.4870 hc        1 MOL      0.026568
    115 H51         0.2860    6.7700    2.8300 hc        1 MOL     -0.015447
    116 H52        -0.5790    7.4350    1.4230 hc        1 MOL     -0.015447
    117 H53        -1.3550    7.5070    2.9090 hc        1 MOL     -0.015447
    118 H54        -1.9710    4.6720    5.5560 hc        1 MOL      0.074668
    119 H55        -1.0920    6.1690    5.1760 hc        1 MOL      0.074668
    120 H56        -2.7730    5.7970    4.4540 hc        1 MOL      0.074668
    121 N11        -3.2140    4.0840    0.0210 n         1 MOL     -0.359641
    122 C40        -4.2570    4.1960   -0.9980 c3        1 MOL     -0.044969
    123 C41        -5.0350    2.9370   -1.2730 c         1 MOL      0.629592
    124 O16        -4.8930    2.0110   -0.4420 o         1 MOL     -0.558150
    125 C42        -5.1330    5.4180   -0.6790 c3        1 MOL      0.131761
    126 O17        -5.8190    5.1550    0.4730 oh        1 MOL     -0.587571
    127 H57        -3.2980    3.3610    0.7220 hn        1 MOL      0.292396
    128 H58        -3.6830    4.3700   -1.9150 h1        1 MOL      0.060136
    129 H59        -5.8820    5.5640   -1.4590 h1        1 MOL      0.018882
    130 H60        -4.5300    6.3250   -0.7350 h1        1 MOL      0.018882
    131 H61        -6.5720    5.7630    0.4890 ho        1 MOL      0.411236
    132 N12        -5.6230    2.8920   -2.4600 n         1 MOL     -0.512834
    133 C43        -6.1710    1.6880   -3.0840 c3        1 MOL      0.223345
    134 C44        -7.3060    1.0440   -2.2110 c         1 MOL      0.437068
    135 O18        -7.3620   -0.1690   -2.1630 o         1 MOL     -0.515216
    136 C45        -5.0880    0.8200   -3.8210 c3        1 MOL     -0.396064
    137 H62        -5.6330    3.7420   -2.9960 hn        1 MOL      0.294515
    138 H63        -6.7180    2.0960   -3.9380 h1        1 MOL      0.036892
    139 H64        -4.5450    1.4210   -4.5370 hc        1 MOL      0.131694
    140 H65        -4.4060    0.4000   -3.0780 hc        1 MOL      0.131694
    141 H66        -5.5490   -0.0730   -4.2420 hc        1 MOL      0.131694
    142 N13        -7.9920    1.8780   -1.4760 n         1 MOL     -0.508520
    143 C46        -9.2610    1.4540   -0.8050 c3        1 MOL      0.320470
    144 C47        -9.0110    0.2950    0.1820 c         1 MOL      0.145061
    145 O19        -9.9120   -0.5140    0.4630 o         1 MOL     -0.397548
    146 C48       -10.2290    1.0180   -1.8910 c3        1 MOL     -0.421495
    147 H67        -7.7420    2.8560   -1.4800 hn        1 MOL      0.279825
    148 H68        -9.6030    2.3560   -0.3070 h1        1 MOL      0.057240
    149 H69       -10.1850    1.7570   -2.6940 hc        1 MOL      0.121508
    150 H70        -9.8850    0.0790   -2.3170 hc        1 MOL      0.121508
    151 H71       -11.2080    0.8870   -1.4330 hc        1 MOL      0.121508
    152 N14        -7.7860    0.2410    0.7790 n         1 MOL     -0.176997
    153 C49        -7.3990   -0.7580    1.7350 c3        1 MOL     -0.484654
    154 C50        -7.8900   -0.4790    3.1670 c         1 MOL      0.713898
    155 O20        -8.2620   -1.3320    3.9280 o         1 MOL     -0.532798
    156 C51        -5.8920   -0.8690    1.6160 c3        1 MOL      0.073431
    157 C52        -5.3240   -2.1960    2.2170 c3        1 MOL     -0.256187
    158 C53        -5.5710   -3.3940    1.3410 c         1 MOL      0.757683
    159 O21        -4.8440   -3.6100    0.3700 o         1 MOL     -0.707942
    160 O22        -6.4800   -4.1200    1.5980 o         1 MOL     -0.707942
    161 H72        -7.1810    1.0310    0.5950 hn        1 MOL      0.240215
    162 H73        -7.8890   -1.6690    1.3890 h1        1 MOL      0.225644
    163 H74        -5.4700   -0.0250    2.1680 hc        1 MOL      0.062371
    164 H75        -5.6540   -0.8760    0.5470 hc        1 MOL      0.062371
    165 H76        -5.7790   -2.2520    3.2030 hc        1 MOL      0.058824
    166 H77        -4.2540   -2.0000    2.3300 hc        1 MOL      0.058824
    167 N15        -8.0080    0.7920    3.6420 n         1 MOL     -0.316424
    168 C54        -8.5190    1.2160    4.9680 c3        1 MOL     -0.254745
    169 H78        -8.3360    0.4260    5.6970 h1        1 MOL      0.116095
    170 H79        -8.0050    2.1250    5.2820 h1        1 MOL      0.116095
    171 H80        -9.5900    1.4080    4.9020 h1        1 MOL      0.116095
    172 H81        -7.6760    1.5490    3.0560 hn        1 MOL      0.222673
    173 Ca1        -6.6420   -5.1570   -0.9520 Ca        1 MOL      1.727614
    174 O23        -4.1750   -5.8000   -2.0830 oh        1 MOL     -0.834846
    175 H82        -4.3280   -6.6720   -2.4320 ho        1 MOL      0.411536
    176 H83        -3.2430   -5.7720   -1.8680 ho        1 MOL      0.411536
    177 O24        -7.1260   -7.5970   -1.8360 oh        1 MOL     -0.834846
    178 H84        -8.0110   -7.8370   -2.0840 ho        1 MOL      0.411536
    179 H85        -6.7460   -8.4000   -1.4830 ho        1 MOL      0.411536
    180 O25        -9.1630   -5.4760    0.1530 oh        1 MOL     -0.834846
    181 H86        -9.8290   -6.1440    0.3260 ho        1 MOL      0.411536
    182 H87        -9.6310   -4.6430    0.2300 ho        1 MOL      0.411536
    183 O26        -5.8250   -3.3360   -2.5270 oh        1 MOL     -0.834846
    184 H88        -4.9530   -2.9680   -2.6910 ho        1 MOL      0.411536
    185 H89        -6.3740   -2.9780   -3.2310 ho        1 MOL      0.411536
    186 O27        -5.6150   -7.0820    0.6250 oh        1 MOL     -0.834846
    187 H90        -5.0460   -6.8430    1.3600 ho        1 MOL      0.411536
    188 H91        -5.6460   -8.0400    0.6350 ho        1 MOL      0.411536
    189 O28        -8.1500   -2.8120   -0.8890 oh        1 MOL     -0.834846
    190 H92        -8.9680   -2.5180   -1.2890 ho        1 MOL      0.411536
    191 H93        -7.6210   -2.0170   -0.8390 ho        1 MOL      0.411536
    192 O29        -8.3250   -4.9420   -3.1210 oh        1 MOL     -0.834846
    193 H94        -9.0360   -4.3520   -3.3570 ho        1 MOL      0.411536
    194 H95        -7.7650   -4.9640   -3.8940 ho        1 MOL      0.411536
@<TRIPOS>BOND
     1    1    2 1   
     2    1    4 1   
     3    1    5 1   
     4    1    6 1   
     5    2    3 2   
     6    2    7 1   
     7    7    8 1   
     8    7   15 1   
     9    8    9 1   
    10    8   11 1   
    11    8   16 1   
    12    9   10 2   
    13    9   19 1   
    14   11   12 1   
    15   11   17 1   
    16   11   18 1   
    17   12   13 1   
    18   12   14 1   
    19   19   20 1   
    20   19   28 1   
    21   20   21 1   
    22   20   23 1   
    23   20   29 1   
    24   21   22 2   
    25   21   41 1   
    26   23   24 1   
    27   23   30 1   
    28   23   31 1   
    29   24   25 1   
    30   24   32 1   
    31   24   33 1   
    32   25   26 1   
    33   25   34 1   
    34   25   35 1   
    35   26   27 1   
    36   26   36 1   
    37   26   37 1   
    38   27   38 1   
    39   27   39 1   
    40   27   40 1   
    41   41   42 1   
    42   41   49 1   
    43   42   43 1   
    44   42   45 1   
    45   42   50 1   
    46   43   44 2   
    47   43   53 1   
    48   45   46 1   
    49   45   51 1   
    50   45   52 1   
    51   46   47 1   
    52   46   48 1   
    53   53   54 1   
    54   53   57 1   
    55   54   55 1   
    56   54   58 1   
    57   54   59 1   
    58   55   56 2   
    59   55   60 1   
    60   60   61 1   
    61   60   68 1   
    62   61   62 1   
    63   61   64 1   
    64   61   69 1   
    65   62   63 2   
    66   62   74 1   
    67   64   65 1   
    68   64   70 1   
    69   64   71 1   
    70   65   66 1   
    71   65   67 2   
    72   66   72 1   
    73   66   73 1   
    74   74   75 1   
    75   74   78 1   
    76   75   76 1   
    77   75   79 1   
    78   75   80 1   
    79   76   77 2   
    80   76   81 1   
    81   81   82 1   
    82   81   93 1   
    83   82   83 1   
    84   82   85 1   
    85   82   94 1   
    86   83   84 2   
    87   83  102 1   
    88   85   86 1   
    89   85   95 1   
    90   85   96 1   
    91   86   87 ar  
    92   86   88 ar  
    93   87   89 ar  
    94   87   97 1   
    95   88   90 ar  
    96   88   98 1   
    97   89   91 ar  
    98   89   99 1   
    99   90   91 ar  
   100   90  100 1   
   101   91   92 1   
   102   92  101 1   
   103  102  103 1   
   104  102  110 1   
   105  103  104 1   
   106  103  106 1   
   107  103  111 1   
   108  104  105 2   
   109  104  121 1   
   110  106  107 1   
   111  106  108 1   
   112  106  112 1   
   113  107  109 1   
   114  107  113 1   
   115  107  114 1   
   116  108  115 1   
   117  108  116 1   
   118  108  117 1   
   119  109  118 1   
   120  109  119 1   
   121  109  120 1   
   122  121  122 1   
   123  121  127 1   
   124  122  123 1   
   125  122  125 1   
   126  122  128 1   
   127  123  124 2   
   128  123  132 1   
   129  125  126 1   
   130  125  129 1   
   131  125  130 1   
   132  126  131 1   
   133  132  133 1   
   134  132  137 1   
   135  133  134 1   
   136  133  136 1   
   137  133  138 1   
   138  134  135 2   
   139  134  142 1   
   140  136  139 1   
   141  136  140 1   
   142  136  141 1   
   143  142  143 1   
   144  142  147 1   
   145  143  144 1   
   146  143  146 1   
   147  143  148 1   
   148  144  145 2   
   149  144  152 1   
   150  146  149 1   
   151  146  150 1   
   152  146  151 1   
   153  152  153 1   
   154  152  161 1   
   155  153  154 1   
   156  153  156 1   
   157  153  162 1   
   158  154  155 2   
   159  154  167 1   
   160  156  157 1   
   161  156  163 1   
   162  156  164 1   
   163  157  158 1   
   164  157  165 1   
   165  157  166 1   
   166  158  159 1   
   167  158  160 1   
   168  167  168 1   
   169  167  172 1   
   170  168  169 1   
   171  168  170 1   
   172  168  171 1   
   173  174  175 1   
   174  174  176 1   
   175  177  178 1   
   176  177  179 1   
   177  180  181 1   
   178  180  182 1   
   179  183  184 1   
   180  183  185 1   
   181  186  187 1   
   182  186  188 1   
   183  189  190 1   
   184  189  191 1   
   185  192  193 1   
   186  192  194 1   
@<TRIPOS>SUBSTRUCTURE
     1 MOL         1 TEMP              0 ****  ****    0 ROOT
