@<TRIPOS>MOLECULE
MOL
  197   188     1     0     0
SMALL
resp


@<TRIPOS>ATOM
      1 C1         -1.5390   -3.6070    2.3180 c3        1 MOL     -0.503207
      2 C2         -2.5690   -2.8140    1.6800 c         1 MOL      0.670067
      3 O1         -2.4600   -2.4260    0.5030 o         1 MOL     -0.606293
      4 H1         -0.5860   -3.4340    1.8180 hc        1 MOL      0.142664
      5 H2         -1.4560   -3.3200    3.3660 hc        1 MOL      0.142664
      6 H3         -1.7990   -4.6640    2.2500 hc        1 MOL      0.142664
      7 N1         -3.6730   -2.4860    2.3710 n         1 MOL     -0.421881
      8 C3         -4.8430   -1.7760    1.8620 c3        1 MOL     -0.029207
      9 C4         -4.8360   -0.3990    2.5550 c         1 MOL      0.405937
     10 O2         -5.6530    0.4760    2.2270 o         1 MOL     -0.418166
     11 C5         -6.1890   -2.6160    2.1530 c3        1 MOL     -0.095411
     12 C6         -6.4180   -2.8280    3.6590 c         1 MOL      0.657454
     13 O3         -7.4220   -3.4870    3.9830 o         1 MOL     -0.654052
     14 O4         -5.5210   -2.5200    4.5060 o         1 MOL     -0.654052
     15 H4         -3.7800   -2.9580    3.2600 hn        1 MOL      0.231469
     16 H5         -4.7620   -1.5970    0.7870 h1        1 MOL      0.119622
     17 H6         -6.1870   -3.6020    1.6880 hc        1 MOL      0.061456
     18 H7         -6.9670   -1.9670    1.7360 hc        1 MOL      0.061456
     19 N2         -3.8870   -0.0820    3.4240 n         1 MOL     -0.487903
     20 C7         -3.8070    1.1680    4.1800 c3        1 MOL      0.034819
     21 C8         -3.8770    2.4330    3.2510 c         1 MOL      0.591854
     22 O5         -4.6160    3.3710    3.6280 o         1 MOL     -0.538082
     23 C9         -4.6850    1.1380    5.3930 c3        1 MOL     -0.058240
     24 C10        -4.1000    0.2980    6.5650 c3        1 MOL      0.249321
     25 C11        -4.9290   -0.0120    7.8190 c3        1 MOL     -0.376339
     26 C12        -6.3590   -0.5680    7.5370 c3        1 MOL      0.160690
     27 N3         -6.3330   -1.9690    6.9450 n4        1 MOL     -0.440495
     28 H8         -3.1590   -0.7690    3.5660 hn        1 MOL      0.310064
     29 H9         -2.7980    1.3000    4.5710 h1        1 MOL      0.043098
     30 H10        -5.6410    0.7100    5.0760 hc        1 MOL      0.055574
     31 H11        -4.8590    2.1500    5.7590 hc        1 MOL      0.055574
     32 H12        -3.3170    0.8880    7.0450 hc        1 MOL     -0.038189
     33 H13        -3.6240   -0.5950    6.1690 hc        1 MOL     -0.038189
     34 H14        -5.0170    0.9340    8.3590 hc        1 MOL      0.118686
     35 H15        -4.3590   -0.7360    8.4130 hc        1 MOL      0.118686
     36 H16        -6.8650    0.1780    6.9270 hx        1 MOL      0.048266
     37 H17        -6.9340   -0.6140    8.4570 hx        1 MOL      0.048266
     38 H18        -5.7470   -2.5190    7.5590 hn        1 MOL      0.323391
     39 H19        -7.2930   -2.2720    6.9200 hn        1 MOL      0.323391
     40 H20        -5.8820   -2.0140    6.0440 hn        1 MOL      0.323391
     41 N4         -3.1880    2.4870    2.1260 n         1 MOL     -0.521590
     42 C13        -3.3480    3.4960    1.1320 c3        1 MOL      0.191043
     43 C14        -4.0520    2.9700   -0.1100 c         1 MOL      0.575922
     44 O6         -3.6660    3.2750   -1.2650 o         1 MOL     -0.594100
     45 C15        -1.9670    4.1930    1.0030 c3        1 MOL     -0.276125
     46 C16        -2.0100    5.4000    0.1650 c         1 MOL      0.714837
     47 O7         -2.4260    6.5010    0.6850 o         1 MOL     -0.689586
     48 O8         -1.6650    5.3130   -1.0250 o         1 MOL     -0.689586
     49 H21        -2.5250    1.7460    1.9070 hn        1 MOL      0.301320
     50 H22        -4.0290    4.2730    1.4720 h1        1 MOL      0.093615
     51 H23        -1.2540    3.5130    0.5230 hc        1 MOL      0.032501
     52 H24        -1.6030    4.3000    2.0250 hc        1 MOL      0.032501
     53 N5         -5.1160    2.1590    0.1250 n         1 MOL     -0.399214
     54 C17        -5.9240    1.6540   -0.9480 c3        1 MOL     -0.070483
     55 C18        -7.1970    1.1290   -0.2750 c         1 MOL      0.499907
     56 O9         -7.8620    1.8740    0.4550 o         1 MOL     -0.505146
     57 H25        -5.3190    1.8270    1.0550 hn        1 MOL      0.224690
     58 H26        -5.3980    0.8070   -1.3910 h1        1 MOL      0.099605
     59 H27        -6.1500    2.3990   -1.7100 h1        1 MOL      0.099605
     60 N6         -7.7340   -0.0960   -0.6110 n         1 MOL     -0.511546
     61 C19        -7.4610   -0.9580   -1.7850 c3        1 MOL      0.489478
     62 C20        -7.0710   -2.4210   -1.2830 c         1 MOL      0.361505
     63 O10        -7.9240   -3.1180   -0.6690 o         1 MOL     -0.545156
     64 C21        -8.8060   -0.9750   -2.5730 c3        1 MOL     -0.408269
     65 C22        -9.0550    0.4180   -3.3110 c         1 MOL      0.708904
     66 N7        -10.3100    0.7620   -3.5720 n         1 MOL     -0.812025
     67 O11        -8.1180    1.1480   -3.6550 o         1 MOL     -0.562258
     68 H28        -8.5680   -0.3070   -0.0810 hn        1 MOL      0.299847
     69 H29        -6.6650   -0.5580   -2.4150 h1        1 MOL     -0.056052
     70 H30        -9.6550   -1.2210   -1.9350 hc        1 MOL      0.096739
     71 H31        -8.7810   -1.8210   -3.2670 hc        1 MOL      0.096739
     72 H32       -11.0600    0.1580   -3.2830 hn        1 MOL      0.382697
     73 H33       -10.5010    1.6690   -3.9810 hn        1 MOL      0.382697
     74 N8         -5.9000   -2.8790   -1.5210 n         1 MOL     -0.260741
     75 C23        -4.8270   -2.2240   -2.3100 c3        1 MOL     -0.155897
     76 C24        -3.6500   -3.1800   -2.5560 c         1 MOL      0.654970
     77 O12        -3.7090   -4.3850   -2.8590 o         1 MOL     -0.548220
     78 H34        -5.6220   -3.7860   -1.1910 hn        1 MOL      0.279351
     79 H35        -4.5150   -1.3010   -1.8270 h1        1 MOL      0.058831
     80 H36        -5.2160   -2.0010   -3.3000 h1        1 MOL      0.058831
     81 N9         -2.4240   -2.6130   -2.4420 n         1 MOL     -0.483128
     82 C25        -1.1590   -3.2650   -2.5260 c3        1 MOL      0.237932
     83 C26         0.0530   -2.5740   -1.7960 c         1 MOL      0.560112
     84 O13         0.0540   -1.3990   -1.5080 o         1 MOL     -0.515454
     85 C27        -0.8460   -3.4370   -4.1060 c3        1 MOL     -0.377118
     86 C28         0.1290   -4.5890   -4.3450 ca        1 MOL      0.144062
     87 C29         1.4700   -4.3410   -4.8230 ca        1 MOL     -0.194280
     88 C30        -0.2830   -5.9310   -4.0720 ca        1 MOL     -0.194280
     89 C31         2.3530   -5.4370   -5.0490 ca        1 MOL     -0.276544
     90 C32         0.5830   -7.0240   -4.2600 ca        1 MOL     -0.276544
     91 C33         1.9410   -6.7190   -4.6350 ca        1 MOL      0.364309
     92 O14         2.8430   -7.7610   -4.7810 oh        1 MOL     -0.538036
     93 H37        -2.5190   -1.6260   -2.2560 hn        1 MOL      0.238138
     94 H38        -1.2800   -4.2850   -2.1560 h1        1 MOL      0.034364
     95 H39        -0.3430   -2.5230   -4.4160 hc        1 MOL      0.120838
     96 H40        -1.7430   -3.7040   -4.6560 hc        1 MOL      0.120838
     97 H41         1.7520   -3.3370   -5.1040 ha        1 MOL      0.156407
     98 H42        -1.3210   -6.0430   -3.8030 ha        1 MOL      0.156407
     99 H43         3.3370   -5.2440   -5.4470 ha        1 MOL      0.159385
    100 H44         0.2450   -8.0360   -4.0640 ha        1 MOL      0.159385
    101 H45         2.5320   -8.6510   -4.6070 ho        1 MOL      0.390579
    102 N10         1.0690   -3.3530   -1.3910 n         1 MOL     -0.450551
    103 C34         2.3560   -2.9370   -0.8540 c3        1 MOL     -0.011876
    104 C35         3.0790   -1.8610   -1.7450 c         1 MOL      0.619409
    105 O15         2.9650   -1.8000   -2.9930 o         1 MOL     -0.553170
    106 C36         3.2120   -4.1380   -0.4680 c3        1 MOL      0.102500
    107 C37         3.7040   -4.7490   -1.8270 c3        1 MOL      0.183459
    108 C38         4.3510   -3.7830    0.4890 c3        1 MOL     -0.134874
    109 C39         4.2900   -6.1240   -1.6860 c3        1 MOL     -0.369122
    110 H46         0.9100   -4.3560   -1.3300 hn        1 MOL      0.230827
    111 H47         2.0870   -2.3860    0.0480 h1        1 MOL      0.077192
    112 H48         2.5140   -4.8310    0.0140 hc        1 MOL      0.026599
    113 H49         4.3880   -4.1570   -2.4370 hc        1 MOL      0.005260
    114 H50         2.8170   -4.8270   -2.4400 hc        1 MOL      0.005260
    115 H51         5.1650   -3.2880   -0.0560 hc        1 MOL      0.018092
    116 H52         3.9990   -3.1240    1.2840 hc        1 MOL      0.018092
    117 H53         4.7810   -4.7000    0.8890 hc        1 MOL      0.018092
    118 H54         3.5540   -6.8910   -1.4560 hc        1 MOL      0.079888
    119 H55         4.8550   -6.3090   -2.5950 hc        1 MOL      0.079888
    120 H56         4.9650   -6.1660   -0.8260 hc        1 MOL      0.079888
    121 N11         3.7780   -0.9370   -1.1290 n         1 MOL     -0.494263
    122 C40         4.8440   -0.1510   -1.7900 c3        1 MOL      0.217208
    123 C41         5.1860    1.1120   -0.9600 c         1 MOL      0.549831
    124 O16         4.7690    1.3280    0.2170 o         1 MOL     -0.446068
    125 C42         6.0740   -0.9930   -2.0430 c3        1 MOL     -0.361019
    126 O17         6.7880   -1.2370   -0.8180 oh        1 MOL     -0.405109
    127 H57         3.7610   -0.9750   -0.1170 hn        1 MOL      0.242144
    128 H58         4.3860    0.2440   -2.7040 h1        1 MOL     -0.006789
    129 H59         6.8000   -0.4230   -2.6330 h1        1 MOL      0.166370
    130 H60         5.7860   -1.9730   -2.4120 h1        1 MOL      0.166370
    131 H61         7.5810   -1.7430   -0.9660 ho        1 MOL      0.394667
    132 N12         5.9070    2.0590   -1.5670 n         1 MOL     -0.576660
    133 C43         6.5330    3.2230   -0.9110 c3        1 MOL      0.262771
    134 C44         7.3780    2.8080    0.2920 c         1 MOL      0.339812
    135 O18         6.9750    3.0480    1.3890 o         1 MOL     -0.417308
    136 C45         5.4450    4.2370   -0.5880 c3        1 MOL     -0.421936
    137 H62         6.2160    1.9100   -2.5120 hn        1 MOL      0.274634
    138 H63         7.1800    3.6930   -1.6630 h1        1 MOL      0.017340
    139 H64         5.8790    5.2140   -0.3640 hc        1 MOL      0.112755
    140 H65         4.8190    4.3410   -1.4790 hc        1 MOL      0.112755
    141 H66         4.8270    3.9460    0.2610 hc        1 MOL      0.112755
    142 N13         8.5440    2.3120   -0.0290 n         1 MOL     -0.405005
    143 C46         9.6250    1.7770    0.7890 c3        1 MOL      0.327197
    144 C47         9.2440    0.8950    1.9880 c         1 MOL      0.263819
    145 O19         9.9970    0.7670    3.0140 o         1 MOL     -0.475634
    146 C48        10.5320    2.9440    1.1560 c3        1 MOL     -0.190373
    147 H67         8.6840    2.3630   -1.0230 hn        1 MOL      0.248027
    148 H68        10.2540    1.1630    0.1480 h1        1 MOL      0.003720
    149 H69        11.4430    2.6630    1.6780 hc        1 MOL      0.054300
    150 H70        10.7910    3.4270    0.2160 hc        1 MOL      0.054300
    151 H71        10.0130    3.6750    1.7820 hc        1 MOL      0.054300
    152 N14         8.1110    0.2160    1.7920 n         1 MOL      0.003593
    153 C49         7.5580   -0.6130    2.8780 c3        1 MOL     -0.243660
    154 C50         8.1630   -2.0060    3.0010 c         1 MOL      0.460969
    155 O20         8.2180   -2.5410    4.1240 o         1 MOL     -0.453771
    156 C51         6.0400   -0.7810    2.6650 c3        1 MOL      0.323747
    157 C52         5.2470   -1.0960    3.9270 c3        1 MOL     -0.340185
    158 C53         5.3900   -0.0910    5.1410 c         1 MOL      0.712562
    159 O21         4.7260    1.0290    5.1840 o         1 MOL     -0.643882
    160 O22         6.2240   -0.3110    6.0460 o         1 MOL     -0.643882
    161 H72         7.6440    0.2320    0.8900 hn        1 MOL     -0.077173
    162 H73         7.7180   -0.0130    3.7740 h1        1 MOL      0.230938
    163 H74         5.8700   -1.4750    1.8350 hc        1 MOL     -0.003729
    164 H75         5.6780    0.1860    2.3240 hc        1 MOL     -0.003729
    165 H76         5.7090   -2.0340    4.2190 hc        1 MOL      0.031033
    166 H77         4.1600   -1.1850    3.8180 hc        1 MOL      0.031033
    167 N15         8.7610   -2.6300    1.8970 n         1 MOL     -0.265829
    168 C54         9.7460   -3.6880    2.0810 c3        1 MOL     -0.261074
    169 H78        10.5280   -3.5910    1.3280 h1        1 MOL      0.112020
    170 H79        10.1870   -3.6050    3.0740 h1        1 MOL      0.112020
    171 H80         9.2610   -4.6590    1.9780 h1        1 MOL      0.112020
    172 H81         8.7080   -2.1640    1.0040 hn        1 MOL      0.168000
    173 Ca1         0.1540    5.2970   -2.8080 Ca        1 MOL      1.785047
    174 O23         2.6490    6.5470   -2.9580 oh        1 MOL     -0.835856
    175 H82         2.8730    7.0570   -2.1800 ho        1 MOL      0.408918
    176 H83         3.3740    5.9300   -3.0610 ho        1 MOL      0.408918
    177 O24        -0.0750    7.6320   -1.8020 oh        1 MOL     -0.835856
    178 H84         0.1060    7.6960   -0.8620 ho        1 MOL      0.408918
    179 H85        -0.3900    8.4970   -2.0440 ho        1 MOL      0.408918
    180 O25        -0.6980    2.8280   -2.4190 oh        1 MOL     -0.835856
    181 H86        -1.5380    3.1200   -2.0670 ho        1 MOL      0.408918
    182 H87        -0.4030    2.1470   -1.8130 ho        1 MOL      0.408918
    183 O26        -0.1400    7.1990   -4.7750 oh        1 MOL     -0.835856
    184 H88        -0.9640    7.6630   -4.9280 ho        1 MOL      0.408918
    185 H89         0.3980    7.4180   -5.5300 ho        1 MOL      0.408918
    186 O27         0.0730    4.2250   -5.2650 oh        1 MOL     -0.835856
    187 H90         0.6990    3.9590   -5.9330 ho        1 MOL      0.408918
    188 H91        -0.7360    3.7660   -5.4930 ho        1 MOL      0.408918
    189 O28        -2.4720    5.1900   -3.6670 oh        1 MOL     -0.835856
    190 H92        -3.0420    4.4320   -3.5420 ho        1 MOL      0.408918
    191 H93        -2.9220    5.7390   -4.3100 ho        1 MOL      0.408918
    192 O29         2.2910    3.4060   -2.9920 oh        1 MOL     -0.835856
    193 H94         2.2120    2.4540   -2.9040 ho        1 MOL      0.408918
    194 H95         3.1150    3.5360   -3.4630 ho        1 MOL      0.408918
    195 O30         1.4430    5.3730   -0.3540 oh        1 MOL     -0.835856
    196 H96         1.4420    5.9990    0.3760 ho        1 MOL      0.408918
    197 H97         1.7580    4.5560    0.0360 ho        1 MOL      0.408918
@<TRIPOS>BOND
     1    1    2 1   
     2    1    4 1   
     3    1    5 1   
     4    1    6 1   
     5    2    3 2   
     6    2    7 1   
     7    7    8 1   
     8    7   15 1   
     9    8    9 1   
    10    8   11 1   
    11    8   16 1   
    12    9   10 2   
    13    9   19 1   
    14   11   12 1   
    15   11   17 1   
    16   11   18 1   
    17   12   13 1   
    18   12   14 1   
    19   19   20 1   
    20   19   28 1   
    21   20   21 1   
    22   20   23 1   
    23   20   29 1   
    24   21   22 2   
    25   21   41 1   
    26   23   24 1   
    27   23   30 1   
    28   23   31 1   
    29   24   25 1   
    30   24   32 1   
    31   24   33 1   
    32   25   26 1   
    33   25   34 1   
    34   25   35 1   
    35   26   27 1   
    36   26   36 1   
    37   26   37 1   
    38   27   38 1   
    39   27   39 1   
    40   27   40 1   
    41   41   42 1   
    42   41   49 1   
    43   42   43 1   
    44   42   45 1   
    45   42   50 1   
    46   43   44 2   
    47   43   53 1   
    48   45   46 1   
    49   45   51 1   
    50   45   52 1   
    51   46   47 1   
    52   46   48 1   
    53   53   54 1   
    54   53   57 1   
    55   54   55 1   
    56   54   58 1   
    57   54   59 1   
    58   55   56 2   
    59   55   60 1   
    60   60   61 1   
    61   60   68 1   
    62   61   62 1   
    63   61   64 1   
    64   61   69 1   
    65   62   63 2   
    66   62   74 1   
    67   64   65 1   
    68   64   70 1   
    69   64   71 1   
    70   65   66 1   
    71   65   67 2   
    72   66   72 1   
    73   66   73 1   
    74   74   75 1   
    75   74   78 1   
    76   75   76 1   
    77   75   79 1   
    78   75   80 1   
    79   76   77 2   
    80   76   81 1   
    81   81   82 1   
    82   81   93 1   
    83   82   83 1   
    84   82   85 1   
    85   82   94 1   
    86   83   84 2   
    87   83  102 1   
    88   85   86 1   
    89   85   95 1   
    90   85   96 1   
    91   86   87 ar  
    92   86   88 ar  
    93   87   89 ar  
    94   87   97 1   
    95   88   90 ar  
    96   88   98 1   
    97   89   91 ar  
    98   89   99 1   
    99   90   91 ar  
   100   90  100 1   
   101   91   92 1   
   102   92  101 1   
   103  102  103 1   
   104  102  110 1   
   105  103  104 1   
   106  103  106 1   
   107  103  111 1   
   108  104  105 2   
   109  104  121 1   
   110  106  107 1   
   111  106  108 1   
   112  106  112 1   
   113  107  109 1   
   114  107  113 1   
   115  107  114 1   
   116  108  115 1   
   117  108  116 1   
   118  108  117 1   
   119  109  118 1   
   120  109  119 1   
   121  109  120 1   
   122  121  122 1   
   123  121  127 1   
   124  122  123 1   
   125  122  125 1   
   126  122  128 1   
   127  123  124 2   
   128  123  132 1   
   129  125  126 1   
   130  125  129 1   
   131  125  130 1   
   132  126  131 1   
   133  132  133 1   
   134  132  137 1   
   135  133  134 1   
   136  133  136 1   
   137  133  138 1   
   138  134  135 2   
   139  134  142 1   
   140  136  139 1   
   141  136  140 1   
   142  136  141 1   
   143  142  143 1   
   144  142  147 1   
   145  143  144 1   
   146  143  146 1   
   147  143  148 1   
   148  144  145 2   
   149  144  152 1   
   150  146  149 1   
   151  146  150 1   
   152  146  151 1   
   153  152  153 1   
   154  152  161 1   
   155  153  154 1   
   156  153  156 1   
   157  153  162 1   
   158  154  155 2   
   159  154  167 1   
   160  156  157 1   
   161  156  163 1   
   162  156  164 1   
   163  157  158 1   
   164  157  165 1   
   165  157  166 1   
   166  158  159 1   
   167  158  160 1   
   168  167  168 1   
   169  167  172 1   
   170  168  169 1   
   171  168  170 1   
   172  168  171 1   
   173  174  175 1   
   174  174  176 1   
   175  177  178 1   
   176  177  179 1   
   177  180  181 1   
   178  180  182 1   
   179  183  184 1   
   180  183  185 1   
   181  186  187 1   
   182  186  188 1   
   183  189  190 1   
   184  189  191 1   
   185  192  193 1   
   186  192  194 1   
   187  195  196 1   
   188  195  197 1   
@<TRIPOS>SUBSTRUCTURE
     1 MOL         1 TEMP              0 ****  ****    0 ROOT
