@<TRIPOS>MOLECULE
MOL
  189   185     1     0     0
SMALL
resp


@<TRIPOS>ATOM
      1 C1         -6.1690   -4.4740    2.8370 c3        1 MOL     -0.084783
      2 C2         -4.9330   -3.9610    2.0410 c         1 MOL      0.495551
      3 O1         -4.3500   -2.9830    2.4430 o         1 MOL     -0.434678
      4 H1         -7.0130   -4.5960    2.1570 hc        1 MOL      0.000224
      5 H2         -5.9320   -5.4320    3.2990 hc        1 MOL      0.000224
      6 H3         -6.4290   -3.7510    3.6110 hc        1 MOL      0.000224
      7 N1         -4.6110   -4.6420    0.8990 n         1 MOL     -0.669338
      8 C3         -3.5770   -4.2930   -0.0650 c3        1 MOL      0.076230
      9 C4         -2.1540   -4.1210    0.4660 c         1 MOL      0.718310
     10 O2         -1.4430   -3.2550   -0.0370 o         1 MOL     -0.522474
     11 C5         -3.9940   -2.9870   -0.8810 c3        1 MOL     -0.698187
     12 C6         -5.5620   -2.9610   -1.0540 c         1 MOL      0.896031
     13 O3         -6.1680   -3.8250   -1.7120 o         1 MOL     -0.720070
     14 O4         -6.2850   -2.0270   -0.5830 o         1 MOL     -0.720070
     15 H4         -5.2460   -5.3680    0.6100 hn        1 MOL      0.340514
     16 H5         -3.4890   -5.0500   -0.8390 h1        1 MOL      0.115745
     17 H6         -3.5110   -2.9600   -1.8590 hc        1 MOL      0.209255
     18 H7         -3.8760   -2.0580   -0.3260 hc        1 MOL      0.209255
     19 N2         -1.7190   -4.8580    1.5160 n         1 MOL     -0.642563
     20 C7         -0.3450   -5.0240    2.0260 c3        1 MOL      0.063189
     21 C8          0.3400   -6.2230    1.2820 c         1 MOL      0.471394
     22 O5          0.0800   -7.3810    1.5810 o         1 MOL     -0.562130
     23 C9         -0.4610   -5.1620    3.5120 c3        1 MOL      0.319229
     24 C10        -1.2360   -4.0570    4.2440 c3        1 MOL      0.147670
     25 C11         0.9650   -5.2110    4.0910 c3        1 MOL     -0.212452
     26 C12        -1.3200   -4.2240    5.7780 c3        1 MOL     -0.289087
     27 H8         -2.3930   -5.3600    2.0690 hn        1 MOL      0.324567
     28 H9          0.2130   -4.1120    1.8070 h1        1 MOL     -0.053772
     29 H10        -0.9830   -6.0950    3.7260 hc        1 MOL     -0.081467
     30 H11        -2.2130   -4.0400    3.7660 hc        1 MOL      0.010934
     31 H12        -0.7390   -3.1230    3.9770 hc        1 MOL      0.010934
     32 H13         1.7390   -5.7950    3.5960 hc        1 MOL      0.035705
     33 H14         1.3260   -4.2390    4.4050 hc        1 MOL      0.035705
     34 H15         0.8430   -5.7690    5.0240 hc        1 MOL      0.035705
     35 H16        -0.3930   -3.9310    6.2730 hc        1 MOL      0.054856
     36 H17        -2.1310   -3.5520    6.0740 hc        1 MOL      0.054856
     37 H18        -1.4770   -5.2750    6.0270 hc        1 MOL      0.054856
     38 N3          1.2720   -5.9740    0.3010 n         1 MOL     -0.337826
     39 C13         1.8660   -4.6960   -0.1020 c3        1 MOL      0.033138
     40 C14         2.3610   -4.7210   -1.5580 c         1 MOL      0.566519
     41 O6          2.4820   -5.7860   -2.1420 o         1 MOL     -0.573288
     42 C15         3.1030   -4.2800    0.8280 c3        1 MOL     -0.070833
     43 C16         3.5700   -2.8620    0.5310 c         1 MOL      0.591778
     44 O7          4.7490   -2.7240    0.0780 o         1 MOL     -0.600104
     45 O8          2.8210   -1.8990    0.7790 o         1 MOL     -0.600104
     46 H19         1.6570   -6.7830   -0.1690 hn        1 MOL      0.250169
     47 H20         1.1010   -3.9280   -0.0250 h1        1 MOL      0.014421
     48 H21         3.9360   -4.9830    0.7420 hc        1 MOL      0.012549
     49 H22         2.8310   -4.2870    1.8810 hc        1 MOL      0.012549
     50 N4          2.5050   -3.6500   -2.2880 n         1 MOL     -0.358859
     51 C17         2.8550   -3.5780   -3.7160 c3        1 MOL     -0.121374
     52 C18         4.4090   -3.2910   -4.0590 c         1 MOL      0.581450
     53 O9          4.9090   -3.8710   -5.0120 o         1 MOL     -0.576960
     54 H23         2.4490   -2.7920   -1.7440 hn        1 MOL      0.269869
     55 H24         2.2400   -2.8170   -4.2040 h1        1 MOL      0.102056
     56 H25         2.4950   -4.4880   -4.2050 h1        1 MOL      0.102056
     57 N5          5.1610   -2.4130   -3.3110 n         1 MOL     -0.456778
     58 C19         6.3580   -1.6960   -3.7290 c3        1 MOL      0.138988
     59 C20         7.4260   -1.6230   -2.6180 c         1 MOL      0.295440
     60 O10         8.5180   -1.1200   -2.8120 o         1 MOL     -0.596475
     61 C21         6.0190   -0.3290   -4.2630 c3        1 MOL     -0.155547
     62 C22         5.1040    0.5490   -3.4360 c         1 MOL      0.672049
     63 O11         5.2680    0.5890   -2.1280 o         1 MOL     -0.670140
     64 O12         4.2590    1.2880   -4.0450 o         1 MOL     -0.670140
     65 H26         4.6850   -1.9400   -2.5550 hn        1 MOL      0.271747
     66 H27         6.8260   -2.2200   -4.5640 h1        1 MOL      0.079815
     67 H28         5.5760   -0.4080   -5.2490 hc        1 MOL      0.020728
     68 H29         6.9480    0.2170   -4.4470 hc        1 MOL      0.020728
     69 N6          7.1690   -1.8830   -1.3770 n         1 MOL      0.079622
     70 C23         8.0630   -1.6550   -0.2100 c3        1 MOL     -0.347716
     71 C24         8.2060   -0.2400    0.2950 c         1 MOL      0.620159
     72 O13         8.8960    0.0280    1.2690 o         1 MOL     -0.665647
     73 H30         6.3160   -2.3470   -1.1170 hn        1 MOL      0.024806
     74 H31         9.0610   -1.9990   -0.4630 h1        1 MOL      0.123859
     75 H32         7.6770   -2.2580    0.6190 h1        1 MOL      0.123859
     76 N7          7.6750    0.7510   -0.3480 n         1 MOL      0.027157
     77 C25         7.7590    2.1930   -0.0080 c3        1 MOL     -0.020382
     78 C26         7.2970    2.6310    1.4050 c         1 MOL      0.456769
     79 O14         7.6120    3.7420    1.8070 o         1 MOL     -0.506527
     80 C27         9.1790    2.7160   -0.3940 c3        1 MOL      0.182905
     81 C28         9.4030    2.3740   -1.8460 c3        1 MOL     -0.191486
     82 C29        10.5440    3.0800   -2.4840 c         1 MOL      0.635692
     83 N8         11.1700    2.6120   -3.4630 n         1 MOL     -0.741250
     84 O15        10.7570    4.2380   -2.1670 o         1 MOL     -0.599320
     85 H33         7.0870    0.5280   -1.1460 hn        1 MOL      0.040422
     86 H34         7.0580    2.6470   -0.7100 h1        1 MOL      0.080031
     87 H35         9.8750    2.0580    0.1220 hc        1 MOL     -0.044439
     88 H36         9.3440    3.7410   -0.0580 hc        1 MOL     -0.044439
     89 H37         8.5020    2.5360   -2.4240 hc        1 MOL      0.062738
     90 H38         9.6610    1.3130   -1.8630 hc        1 MOL      0.062738
     91 H39        10.8050    1.7580   -3.8700 hn        1 MOL      0.335547
     92 H40        11.8730    3.1350   -3.9600 hn        1 MOL      0.335547
     93 N9          6.4300    1.8130    2.0470 n         1 MOL     -0.315392
     94 C30         5.9860    2.0740    3.4410 c3        1 MOL      0.002330
     95 C31         4.4540    2.3260    3.6120 c         1 MOL      0.652057
     96 O16         4.0740    3.0650    4.4830 o         1 MOL     -0.598258
     97 C32         6.2560    0.8710    4.4080 c3        1 MOL      0.190197
     98 C33         5.9430   -0.5680    3.8560 c3        1 MOL     -0.302801
     99 C34         7.7160    0.8630    4.9460 c3        1 MOL     -0.302801
    100 H41         6.0010    1.0610    1.5320 hn        1 MOL      0.187309
    101 H42         6.3650    3.0050    3.8650 h1        1 MOL      0.064826
    102 H43         5.7180    0.9460    5.3500 hc        1 MOL     -0.017284
    103 H44         4.9950   -0.5690    3.3160 hc        1 MOL      0.071683
    104 H45         6.7600   -0.9080    3.2120 hc        1 MOL      0.071683
    105 H46         5.9900   -1.2180    4.7340 hc        1 MOL      0.071683
    106 H47         7.7920   -0.0470    5.5350 hc        1 MOL      0.071683
    107 H48         8.4370    0.8140    4.1350 hc        1 MOL      0.071683
    108 H49         8.0710    1.6890    5.5550 hc        1 MOL      0.071683
    109 N10         3.6660    1.8130    2.6530 n         1 MOL     -0.698733
    110 C35         2.1590    1.7800    2.6630 c3        1 MOL      0.460232
    111 C36         1.5270    2.2390    1.2680 c         1 MOL      0.504395
    112 O17         2.2100    2.3030    0.2180 o         1 MOL     -0.523032
    113 C37         1.8610    0.3170    3.0590 c3        1 MOL     -0.336035
    114 C38         0.4520   -0.2130    2.6190 c         1 MOL      0.605157
    115 N11         0.4250   -1.1920    1.7720 n         1 MOL     -0.679396
    116 O18        -0.5930    0.2820    2.9150 o         1 MOL     -0.608913
    117 H50         4.1060    1.2140    1.9710 hn        1 MOL      0.338578
    118 H51         1.7060    2.4820    3.3580 h1        1 MOL      0.007242
    119 H52         1.9200    0.2320    4.1430 hc        1 MOL      0.079708
    120 H53         2.5790   -0.4320    2.7130 hc        1 MOL      0.079708
    121 H54         1.3300   -1.5870    1.5320 hn        1 MOL      0.358537
    122 H55        -0.4270   -1.6370    1.4830 hn        1 MOL      0.358537
    123 N12         0.1940    2.4120    1.2660 n         1 MOL     -0.714460
    124 C39        -0.5840    2.9440    0.0910 c3        1 MOL      0.505961
    125 C40        -1.9010    3.5990    0.5370 c         1 MOL      0.491072
    126 O19        -2.4290    3.1350    1.5270 o         1 MOL     -0.559415
    127 C41        -0.8930    1.7000   -0.8500 c3        1 MOL     -0.120144
    128 C42        -1.7140    2.0650   -2.0470 ca        1 MOL     -0.125126
    129 C43        -1.2670    3.0420   -2.9710 ca        1 MOL      0.012534
    130 C44        -3.0110    1.5040   -2.1720 ca        1 MOL      0.012534
    131 C45        -2.1140    3.4150   -3.9950 ca        1 MOL     -0.404447
    132 C46        -3.8240    1.9180   -3.2380 ca        1 MOL     -0.404447
    133 C47        -3.4790    2.9430   -4.1460 ca        1 MOL      0.486937
    134 O20        -4.1810    3.2240   -5.2780 oh        1 MOL     -0.571248
    135 H56        -0.4200    2.2370    2.0580 hn        1 MOL      0.319617
    136 H57        -0.0040    3.7420   -0.3600 h1        1 MOL     -0.031566
    137 H58        -1.4440    0.9630   -0.2750 hc        1 MOL      0.080998
    138 H59         0.0680    1.2310   -1.0290 hc        1 MOL      0.080998
    139 H60        -0.2560    3.4080   -2.8020 ha        1 MOL      0.100630
    140 H61        -3.3100    0.6440   -1.5870 ha        1 MOL      0.100630
    141 H62        -1.7430    4.0760   -4.7620 ha        1 MOL      0.172127
    142 H63        -4.7900    1.4330   -3.3660 ha        1 MOL      0.172127
    143 H64        -4.9510    2.6850   -5.4290 ho        1 MOL      0.397101
    144 N13        -2.4130    4.5990   -0.1260 n         1 MOL     -0.646529
    145 C48        -3.6560    5.2370    0.2190 c3        1 MOL      0.310108
    146 C49        -4.8210    4.9520   -0.7790 c         1 MOL      0.690171
    147 O21        -4.9060    5.5880   -1.8500 o         1 MOL     -0.573034
    148 C50        -3.3930    6.7430    0.4100 c3        1 MOL      0.086755
    149 C51        -4.5480    7.4950    0.8970 c3        1 MOL     -0.152710
    150 C52        -4.3350    9.0100    1.1040 c         1 MOL      0.728173
    151 O22        -4.3350    9.8370    0.1950 o         1 MOL     -0.684748
    152 O23        -4.2630    9.2980    2.3230 o         1 MOL     -0.684748
    153 H65        -1.8670    4.9410   -0.9080 hn        1 MOL      0.306706
    154 H66        -4.0490    4.8880    1.1730 h1        1 MOL      0.057068
    155 H67        -3.0380    7.2670   -0.4830 hc        1 MOL     -0.034789
    156 H68        -2.6540    6.9170    1.1950 hc        1 MOL     -0.034789
    157 H69        -4.8750    7.0760    1.8510 hc        1 MOL      0.009297
    158 H70        -5.3770    7.4720    0.1940 hc        1 MOL      0.009297
    159 N14        -5.7350    3.9640   -0.6100 n         1 MOL     -0.796288
    160 C53        -5.6490    2.8330    0.2880 c3        1 MOL      0.012478
    161 C54        -6.0280    3.1510    1.7270 c         1 MOL      0.714583
    162 O24        -6.2760    4.3060    2.1600 o         1 MOL     -0.572615
    163 C55        -6.3220    1.6540   -0.4270 c3        1 MOL      0.143398
    164 C56        -7.9000    1.7380   -0.1890 c3        1 MOL     -0.624676
    165 C57        -8.6250    0.5600   -0.8710 c         1 MOL      0.907935
    166 O25        -8.3740    0.3380   -2.0520 o         1 MOL     -0.811601
    167 O26        -9.2510   -0.3670   -0.2850 o         1 MOL     -0.811601
    168 H71        -6.5190    3.9430   -1.2500 hn        1 MOL      0.360459
    169 H72        -4.6160    2.4640    0.3000 h1        1 MOL      0.031882
    170 H73        -5.8510    0.7710    0.0050 hc        1 MOL      0.066780
    171 H74        -6.2080    1.7510   -1.5070 hc        1 MOL      0.066780
    172 H75        -8.2890    2.6330   -0.6700 hc        1 MOL      0.143233
    173 H76        -8.1000    1.7340    0.8910 hc        1 MOL      0.143233
    174 N15        -5.8680    2.0800    2.6080 n         1 MOL     -0.377813
    175 C58        -5.9760    2.0290    4.0890 c3        1 MOL     -0.642600
    176 H77        -5.0310    2.3420    4.5320 h1        1 MOL      0.227970
    177 H78        -6.7710    2.6980    4.4190 h1        1 MOL      0.227970
    178 H79        -6.2040    1.0110    4.4030 h1        1 MOL      0.227970
    179 H80        -5.5400    1.2890    2.0830 hn        1 MOL      0.298680
    180 Ca1        -8.7520   -2.6120   -1.1610 Ca        1 MOL      1.608525
    181 O27        -8.9440   -4.9220   -2.7000 oh        1 MOL     -0.865660
    182 H81        -9.7560   -5.3230   -3.0030 ho        1 MOL      0.409839
    183 H82        -8.2840   -5.6060   -2.8070 ho        1 MOL      0.409839
    184 O28        -8.4020   -1.7940   -3.7360 oh        1 MOL     -0.865660
    185 H83        -8.7880   -2.0100   -4.5870 ho        1 MOL      0.409839
    186 H84        -8.3530   -0.8410   -3.7230 ho        1 MOL      0.409839
    187 O29       -11.1680   -1.8420   -1.8840 oh        1 MOL     -0.865660
    188 H85       -11.2520   -1.1670   -2.5520 ho        1 MOL      0.409839
    189 H86       -12.0680   -1.9820   -1.5870 ho        1 MOL      0.409839
@<TRIPOS>BOND
     1    1    2 1   
     2    1    4 1   
     3    1    5 1   
     4    1    6 1   
     5    2    3 2   
     6    2    7 1   
     7    7    8 1   
     8    7   15 1   
     9    8    9 1   
    10    8   11 1   
    11    8   16 1   
    12    9   10 2   
    13    9   19 1   
    14   11   12 1   
    15   11   17 1   
    16   11   18 1   
    17   12   13 1   
    18   12   14 1   
    19   19   20 1   
    20   19   27 1   
    21   20   21 1   
    22   20   23 1   
    23   20   28 1   
    24   21   22 2   
    25   21   38 1   
    26   23   24 1   
    27   23   25 1   
    28   23   29 1   
    29   24   26 1   
    30   24   30 1   
    31   24   31 1   
    32   25   32 1   
    33   25   33 1   
    34   25   34 1   
    35   26   35 1   
    36   26   36 1   
    37   26   37 1   
    38   38   39 1   
    39   38   46 1   
    40   39   40 1   
    41   39   42 1   
    42   39   47 1   
    43   40   41 2   
    44   40   50 1   
    45   42   43 1   
    46   42   48 1   
    47   42   49 1   
    48   43   44 1   
    49   43   45 1   
    50   50   51 1   
    51   50   54 1   
    52   51   52 1   
    53   51   55 1   
    54   51   56 1   
    55   52   53 2   
    56   52   57 1   
    57   57   58 1   
    58   57   65 1   
    59   58   59 1   
    60   58   61 1   
    61   58   66 1   
    62   59   60 2   
    63   59   69 1   
    64   61   62 1   
    65   61   67 1   
    66   61   68 1   
    67   62   63 1   
    68   62   64 1   
    69   69   70 1   
    70   69   73 1   
    71   70   71 1   
    72   70   74 1   
    73   70   75 1   
    74   71   72 2   
    75   71   76 1   
    76   76   77 1   
    77   76   85 1   
    78   77   78 1   
    79   77   80 1   
    80   77   86 1   
    81   78   79 2   
    82   78   93 1   
    83   80   81 1   
    84   80   87 1   
    85   80   88 1   
    86   81   82 1   
    87   81   89 1   
    88   81   90 1   
    89   82   83 1   
    90   82   84 2   
    91   83   91 1   
    92   83   92 1   
    93   93   94 1   
    94   93  100 1   
    95   94   95 1   
    96   94   97 1   
    97   94  101 1   
    98   95   96 2   
    99   95  109 1   
   100   97   98 1   
   101   97   99 1   
   102   97  102 1   
   103   98  103 1   
   104   98  104 1   
   105   98  105 1   
   106   99  106 1   
   107   99  107 1   
   108   99  108 1   
   109  109  110 1   
   110  109  117 1   
   111  110  111 1   
   112  110  113 1   
   113  110  118 1   
   114  111  112 2   
   115  111  123 1   
   116  113  114 1   
   117  113  119 1   
   118  113  120 1   
   119  114  115 1   
   120  114  116 2   
   121  115  121 1   
   122  115  122 1   
   123  123  124 1   
   124  123  135 1   
   125  124  125 1   
   126  124  127 1   
   127  124  136 1   
   128  125  126 2   
   129  125  144 1   
   130  127  128 1   
   131  127  137 1   
   132  127  138 1   
   133  128  129 ar  
   134  128  130 ar  
   135  129  131 ar  
   136  129  139 1   
   137  130  132 ar  
   138  130  140 1   
   139  131  133 ar  
   140  131  141 1   
   141  132  133 ar  
   142  132  142 1   
   143  133  134 1   
   144  134  143 1   
   145  144  145 1   
   146  144  153 1   
   147  145  146 1   
   148  145  148 1   
   149  145  154 1   
   150  146  147 2   
   151  146  159 1   
   152  148  149 1   
   153  148  155 1   
   154  148  156 1   
   155  149  150 1   
   156  149  157 1   
   157  149  158 1   
   158  150  151 1   
   159  150  152 1   
   160  159  160 1   
   161  159  168 1   
   162  160  161 1   
   163  160  163 1   
   164  160  169 1   
   165  161  162 2   
   166  161  174 1   
   167  163  164 1   
   168  163  170 1   
   169  163  171 1   
   170  164  165 1   
   171  164  172 1   
   172  164  173 1   
   173  165  166 1   
   174  165  167 1   
   175  174  175 1   
   176  174  179 1   
   177  175  176 1   
   178  175  177 1   
   179  175  178 1   
   180  181  182 1   
   181  181  183 1   
   182  184  185 1   
   183  184  186 1   
   184  187  188 1   
   185  187  189 1   
@<TRIPOS>SUBSTRUCTURE
     1 MOL         1 TEMP              0 ****  ****    0 ROOT
