@<TRIPOS>MOLECULE
MOL
  185   180     1     0     0
SMALL
resp


@<TRIPOS>ATOM
      1 C1         -5.7420    0.9320   -4.2800 c3        1 MOL     -0.497985
      2 C2         -6.3220    0.9930   -2.8670 c         1 MOL      0.793170
      3 O1         -5.5200    1.0230   -1.9520 o         1 MOL     -0.543345
      4 H1         -6.1260    1.7670   -4.8660 hc        1 MOL      0.127504
      5 H2         -4.6550    0.9930   -4.2300 hc        1 MOL      0.127504
      6 H3         -6.0320   -0.0060   -4.7520 hc        1 MOL      0.127504
      7 N1         -7.6430    0.9810   -2.7120 n         1 MOL     -0.643009
      8 C3         -8.3970    1.2020   -1.4930 c3        1 MOL      0.061028
      9 C4         -8.3900    0.0960   -0.4520 c         1 MOL      0.409334
     10 O2         -8.7480    0.3970    0.6940 o         1 MOL     -0.532505
     11 C5         -8.2630    2.6690   -0.9100 c3        1 MOL     -0.185545
     12 C6         -7.9490    3.8530   -1.8980 c         1 MOL      0.716447
     13 O3         -7.5650    4.9370   -1.3910 o         1 MOL     -0.685752
     14 O4         -8.1110    3.7240   -3.1600 o         1 MOL     -0.685752
     15 H4         -8.1850    0.9500   -3.5620 hn        1 MOL      0.334812
     16 H5         -9.4060    1.2180   -1.9060 h1        1 MOL      0.077852
     17 H6         -7.4880    2.6440   -0.1480 hc        1 MOL      0.056446
     18 H7         -9.1400    3.0070   -0.3420 hc        1 MOL      0.056446
     19 N2         -7.8560   -1.0360   -0.8760 n         1 MOL     -0.143687
     20 C7         -7.8520   -2.2670   -0.0400 c3        1 MOL      0.116769
     21 C8         -6.4880   -2.9520   -0.0330 c         1 MOL      0.481103
     22 O5         -6.4830   -4.1840    0.2200 o         1 MOL     -0.552203
     23 C9         -8.9340   -3.1860   -0.4880 c3        1 MOL     -0.235630
     24 C10       -10.4190   -2.6240   -0.3280 c3        1 MOL      0.048496
     25 C11       -10.9350   -2.5530    1.1330 c3        1 MOL      0.116875
     26 C12       -12.2330   -1.7930    1.1330 c3        1 MOL     -0.063674
     27 N3        -12.3990   -1.2290    2.4810 n4        1 MOL     -0.230129
     28 H8         -7.6690   -1.1820   -1.8580 hn        1 MOL      0.160609
     29 H9         -8.0090   -2.0740    1.0270 h1        1 MOL      0.046309
     30 H10        -8.9050   -4.1240    0.0620 hc        1 MOL      0.087728
     31 H11        -8.7410   -3.4140   -1.5310 hc        1 MOL      0.087728
     32 H12       -11.0510   -3.3610   -0.8320 hc        1 MOL     -0.015385
     33 H13       -10.4380   -1.6490   -0.8100 hc        1 MOL     -0.015385
     34 H14       -10.2270   -1.9590    1.6920 hc        1 MOL      0.007389
     35 H15       -11.1030   -3.5090    1.6290 hc        1 MOL      0.007389
     36 H16       -13.1120   -2.4110    0.9870 hx        1 MOL      0.099551
     37 H17       -12.3060   -1.0260    0.3590 hx        1 MOL      0.099551
     38 H18       -12.4140   -1.9100    3.2340 hn        1 MOL      0.292554
     39 H19       -11.6210   -0.6930    2.8400 hn        1 MOL      0.292554
     40 H20       -13.2060   -0.6380    2.6270 hn        1 MOL      0.292554
     41 N4         -5.4530   -2.1960   -0.3260 n         1 MOL     -0.345957
     42 C13        -4.0640   -2.5130   -0.2080 c3        1 MOL     -0.109059
     43 C14        -3.6170   -3.0440    1.1670 c         1 MOL      0.494063
     44 O6         -3.9330   -2.5460    2.2900 o         1 MOL     -0.510249
     45 C15        -3.4160   -1.1640   -0.5870 c3        1 MOL     -0.219359
     46 C16        -1.8930   -1.3630   -0.6620 c         1 MOL      0.799787
     47 O7         -1.4500   -1.8820   -1.6970 o         1 MOL     -0.779763
     48 O8         -1.1140   -0.9980    0.2430 o         1 MOL     -0.779763
     49 H21        -5.6710   -1.2310   -0.5740 hn        1 MOL      0.196548
     50 H22        -3.8640   -3.2660   -0.9690 h1        1 MOL      0.123512
     51 H23        -3.8470   -0.4680    0.1310 hc        1 MOL      0.132346
     52 H24        -3.7580   -0.9260   -1.5970 hc        1 MOL      0.132346
     53 N5         -2.6870   -3.9300    1.1800 n         1 MOL     -0.208369
     54 C17        -2.0730   -4.7060    2.2670 c3        1 MOL     -0.087204
     55 C18        -1.3250   -3.9310    3.3290 c         1 MOL      0.512600
     56 O9         -1.2890   -4.3910    4.4950 o         1 MOL     -0.563404
     57 H25        -2.3970   -4.3000    0.2930 hn        1 MOL      0.183201
     58 H26        -1.3760   -5.4210    1.8200 h1        1 MOL      0.089140
     59 H27        -2.8630   -5.2820    2.7400 h1        1 MOL      0.089140
     60 N6         -0.7450   -2.7760    3.0340 n         1 MOL     -0.116894
     61 C19        -0.0850   -1.8270    3.9230 c3        1 MOL     -0.052510
     62 C20        -0.6430   -0.3780    3.9120 c         1 MOL      0.436826
     63 O10        -0.3510    0.4840    4.7590 o         1 MOL     -0.539840
     64 C21         1.4550   -1.9870    3.8310 c3        1 MOL     -0.220680
     65 C22         2.1530   -1.3730    2.5980 c         1 MOL      0.646693
     66 N7          3.3160   -0.8130    2.7270 n         1 MOL     -0.718485
     67 O11         1.6210   -1.3600    1.5210 o         1 MOL     -0.507877
     68 H28        -0.7660   -2.5000    2.0700 hn        1 MOL      0.017186
     69 H29        -0.3110   -2.2220    4.9110 h1        1 MOL      0.116968
     70 H30         1.9330   -2.9430    4.0620 hc        1 MOL      0.091737
     71 H31         1.7840   -1.3470    4.6650 hc        1 MOL      0.091737
     72 H32         3.7080   -0.5170    3.6100 hn        1 MOL      0.308500
     73 H33         3.8500   -0.6450    1.8820 hn        1 MOL      0.308500
     74 N8         -1.5850   -0.1100    3.0130 n         1 MOL      0.068361
     75 C23        -2.3980    1.0590    2.8560 c3        1 MOL     -0.403944
     76 C24        -1.7090    2.1910    1.9970 c         1 MOL      0.594884
     77 O12        -1.8800    3.3760    2.3100 o         1 MOL     -0.537498
     78 H34        -1.8460   -0.8970    2.4370 hn        1 MOL      0.011357
     79 H35        -2.6160    1.5460    3.8010 h1        1 MOL      0.172081
     80 H36        -3.2490    0.8020    2.2260 h1        1 MOL      0.172081
     81 N9         -0.9360    1.8660    0.9730 n         1 MOL     -0.304627
     82 C25        -0.0540    2.7570    0.2430 c3        1 MOL      0.015378
     83 C26         1.2500    2.0650   -0.1050 c         1 MOL      0.437844
     84 O13         1.3060    0.8220   -0.2490 o         1 MOL     -0.372079
     85 C27        -0.7090    3.3910   -1.0000 c3        1 MOL      0.140409
     86 C28        -1.9860    4.1380   -0.9010 ca        1 MOL     -0.302604
     87 C29        -2.0220    5.4770   -0.3300 ca        1 MOL      0.039006
     88 C30        -3.1880    3.4370   -1.1550 ca        1 MOL      0.039006
     89 C31        -3.2440    6.1690   -0.2170 ca        1 MOL     -0.362619
     90 C32        -4.4360    4.1060   -0.9540 ca        1 MOL     -0.362619
     91 C33        -4.4490    5.4730   -0.4570 ca        1 MOL      0.511900
     92 O14        -5.6440    6.1410   -0.3040 oh        1 MOL     -0.613073
     93 H37        -0.8050    0.8680    0.9320 hn        1 MOL      0.153165
     94 H38         0.1590    3.6230    0.8590 h1        1 MOL      0.057677
     95 H39        -0.9300    2.5570   -1.6700 hc        1 MOL     -0.013408
     96 H40        -0.0320    4.0020   -1.5920 hc        1 MOL     -0.013408
     97 H41        -1.0340    5.8900   -0.1510 ha        1 MOL      0.053094
     98 H42        -3.1940    2.4490   -1.5890 ha        1 MOL      0.053094
     99 H43        -3.2420    7.1490    0.2270 ha        1 MOL      0.161288
    100 H44        -5.3340    3.5320   -1.1380 ha        1 MOL      0.161288
    101 H45        -6.3840    5.7290   -0.7530 ho        1 MOL      0.437451
    102 N10         2.3170    2.8430   -0.0420 n         1 MOL     -0.537900
    103 C34         3.6140    2.3880   -0.5300 c3        1 MOL      0.333331
    104 C35         4.4520    1.8890    0.6150 c         1 MOL      0.044563
    105 O15         5.0460    0.7710    0.6210 o         1 MOL     -0.213496
    106 C36         4.3270    3.4810   -1.3820 c3        1 MOL      0.009160
    107 C37         3.3830    4.1160   -2.5020 c3        1 MOL     -0.020727
    108 C38         5.6010    2.7990   -1.9950 c3        1 MOL     -0.606532
    109 C39         2.6400    3.2190   -3.4210 c3        1 MOL     -0.051249
    110 H46         2.1910    3.8290    0.1010 hn        1 MOL      0.326641
    111 H47         3.4470    1.5040   -1.1410 h1        1 MOL     -0.012727
    112 H48         4.6920    4.3080   -0.7740 hc        1 MOL     -0.002599
    113 H49         4.0320    4.6920   -3.1680 hc        1 MOL      0.024528
    114 H50         2.6990    4.8080   -2.0090 hc        1 MOL      0.024528
    115 H51         6.2530    3.5760   -2.3990 hc        1 MOL      0.183392
    116 H52         6.1720    2.3590   -1.1760 hc        1 MOL      0.183392
    117 H53         5.3230    2.1650   -2.8310 hc        1 MOL      0.183392
    118 H54         2.3360    3.7710   -4.3020 hc        1 MOL      0.026908
    119 H55         3.2790    2.3870   -3.7390 hc        1 MOL      0.026908
    120 H56         1.7030    2.8420   -3.0140 hc        1 MOL      0.026908
    121 N11         4.5950    2.7970    1.6200 n         1 MOL     -0.150779
    122 C40         5.3230    2.5450    2.8880 c3        1 MOL      0.042172
    123 C41         6.8290    2.2540    2.6620 c         1 MOL      0.064270
    124 O16         7.4200    1.2650    3.2250 o         1 MOL     -0.436885
    125 C42         5.1830    3.7570    3.7910 c3        1 MOL      0.291928
    126 O17         3.9240    4.3020    3.7050 oh        1 MOL     -0.581368
    127 H57         4.0370    3.6350    1.5670 hn        1 MOL      0.161114
    128 H58         4.8180    1.7600    3.4510 h1        1 MOL      0.152850
    129 H59         5.9310    4.5070    3.5460 h1        1 MOL      0.000561
    130 H60         5.2530    3.4090    4.8220 h1        1 MOL      0.000561
    131 H61         4.0850    5.1780    3.3630 ho        1 MOL      0.396399
    132 N12         7.4230    2.9040    1.6670 n         1 MOL      0.010359
    133 C43         8.7670    2.6180    1.0420 c3        1 MOL      0.126319
    134 C44         9.1620    1.2430    0.6270 c         1 MOL      0.553555
    135 O18        10.3030    0.8330    0.5620 o         1 MOL     -0.534212
    136 C45         9.8900    3.2870    1.9130 c3        1 MOL     -0.412057
    137 H62         7.1030    3.8470    1.4740 hn        1 MOL      0.170926
    138 H63         8.7270    3.2140    0.1380 h1        1 MOL      0.033917
    139 H64        10.8070    3.2890    1.3290 hc        1 MOL      0.120289
    140 H65         9.6960    4.3000    2.2610 hc        1 MOL      0.120289
    141 H66        10.1280    2.6880    2.7920 hc        1 MOL      0.120289
    142 N13         8.1370    0.4060    0.3390 n         1 MOL     -0.340591
    143 C46         8.1600   -1.1120    0.2430 c3        1 MOL      0.313758
    144 C47         7.4110   -1.6540   -0.9410 c         1 MOL      0.407474
    145 O19         6.5860   -0.9900   -1.6000 o         1 MOL     -0.415709
    146 C48         7.6360   -1.6950    1.5500 c3        1 MOL     -0.335951
    147 H67         7.1930    0.7510    0.2930 hn        1 MOL     -0.093004
    148 H68         9.1990   -1.4230    0.1320 h1        1 MOL      0.019672
    149 H69         6.6330   -1.2910    1.6910 hc        1 MOL      0.110378
    150 H70         7.6740   -2.7840    1.5060 hc        1 MOL      0.110378
    151 H71         8.1990   -1.3040    2.3940 hc        1 MOL      0.110378
    152 N14         7.5160   -2.9900   -1.1280 n         1 MOL     -0.643688
    153 C49         6.9170   -3.7230   -2.2870 c3        1 MOL     -0.104517
    154 C50         7.1410   -3.0720   -3.6650 c         1 MOL      0.478474
    155 O20         6.3600   -3.3180   -4.5460 o         1 MOL     -0.508254
    156 C51         5.4220   -3.8860   -2.1040 c3        1 MOL      0.025802
    157 C52         4.9500   -4.2450   -0.7010 c3        1 MOL      0.163259
    158 C53         3.4190   -4.4190   -0.7850 c         1 MOL      0.498361
    159 O21         2.6630   -3.4700   -0.4850 o         1 MOL     -0.685570
    160 O22         2.8680   -5.5230   -1.1550 o         1 MOL     -0.685570
    161 H72         8.0600   -3.5280   -0.4700 hn        1 MOL      0.375917
    162 H73         7.3290   -4.7320   -2.3240 h1        1 MOL      0.137159
    163 H74         5.1200   -4.7070   -2.7490 hc        1 MOL      0.041848
    164 H75         4.8950   -2.9660   -2.3600 hc        1 MOL      0.041848
    165 H76         5.1300   -3.4110   -0.0190 hc        1 MOL     -0.051122
    166 H77         5.4100   -5.1780   -0.3970 hc        1 MOL     -0.051122
    167 N15         8.1450   -2.2670   -3.9070 n         1 MOL     -0.311385
    168 C54         8.3680   -1.4280   -5.0670 c3        1 MOL     -0.057805
    169 H78         7.4440   -1.3510   -5.6410 h1        1 MOL      0.067739
    170 H79         8.6770   -0.4340   -4.7430 h1        1 MOL      0.067739
    171 H80         9.1470   -1.8670   -5.6900 h1        1 MOL      0.067739
    172 H81         8.7380   -2.0370   -3.1260 hn        1 MOL      0.246402
    173 Ca1         1.1210   -1.6420   -1.2180 Ca        1 MOL      1.680149
    174 O23         0.4820    0.2930   -3.0330 oh        1 MOL     -0.802660
    175 O24         1.8780   -2.3220   -3.8130 oh        1 MOL     -0.802660
    176 H82         1.0630    1.0140   -3.2480 ho        1 MOL      0.403927
    177 H83         1.3090   -2.3900   -4.5790 ho        1 MOL      0.403927
    178 H84        -0.3560    0.5200   -3.4510 ho        1 MOL      0.403927
    179 H85         2.2710   -3.1900   -3.7210 ho        1 MOL      0.403927
    180 O25         0.1450   -4.2180   -0.4060 oh        1 MOL     -0.802660
    181 H86         1.0660   -4.4700   -0.3550 ho        1 MOL      0.403927
    182 H87        -0.3270   -5.0410   -0.4970 ho        1 MOL      0.403927
    183 O26         3.7450   -0.9250   -1.2320 oh        1 MOL     -0.802660
    184 H88         4.5700   -0.6910   -1.6580 ho        1 MOL      0.403927
    185 H89         3.9440   -0.8710   -0.2920 ho        1 MOL      0.403927
@<TRIPOS>BOND
     1    1    2 1   
     2    1    4 1   
     3    1    5 1   
     4    1    6 1   
     5    2    3 2   
     6    2    7 1   
     7    7    8 1   
     8    7   15 1   
     9    8    9 1   
    10    8   11 1   
    11    8   16 1   
    12    9   10 2   
    13    9   19 1   
    14   11   12 1   
    15   11   17 1   
    16   11   18 1   
    17   12   13 1   
    18   12   14 1   
    19   19   20 1   
    20   19   28 1   
    21   20   21 1   
    22   20   23 1   
    23   20   29 1   
    24   21   22 2   
    25   21   41 1   
    26   23   24 1   
    27   23   30 1   
    28   23   31 1   
    29   24   25 1   
    30   24   32 1   
    31   24   33 1   
    32   25   26 1   
    33   25   34 1   
    34   25   35 1   
    35   26   27 1   
    36   26   36 1   
    37   26   37 1   
    38   27   38 1   
    39   27   39 1   
    40   27   40 1   
    41   41   42 1   
    42   41   49 1   
    43   42   43 1   
    44   42   45 1   
    45   42   50 1   
    46   43   44 2   
    47   43   53 1   
    48   45   46 1   
    49   45   51 1   
    50   45   52 1   
    51   46   47 1   
    52   46   48 1   
    53   53   54 1   
    54   53   57 1   
    55   54   55 1   
    56   54   58 1   
    57   54   59 1   
    58   55   56 2   
    59   55   60 1   
    60   60   61 1   
    61   60   68 1   
    62   61   62 1   
    63   61   64 1   
    64   61   69 1   
    65   62   63 2   
    66   62   74 1   
    67   64   65 1   
    68   64   70 1   
    69   64   71 1   
    70   65   66 1   
    71   65   67 2   
    72   66   72 1   
    73   66   73 1   
    74   74   75 1   
    75   74   78 1   
    76   75   76 1   
    77   75   79 1   
    78   75   80 1   
    79   76   77 2   
    80   76   81 1   
    81   81   82 1   
    82   81   93 1   
    83   82   83 1   
    84   82   85 1   
    85   82   94 1   
    86   83   84 2   
    87   83  102 1   
    88   85   86 1   
    89   85   95 1   
    90   85   96 1   
    91   86   87 ar  
    92   86   88 ar  
    93   87   89 ar  
    94   87   97 1   
    95   88   90 ar  
    96   88   98 1   
    97   89   91 ar  
    98   89   99 1   
    99   90   91 ar  
   100   90  100 1   
   101   91   92 1   
   102   92  101 1   
   103  102  103 1   
   104  102  110 1   
   105  103  104 1   
   106  103  106 1   
   107  103  111 1   
   108  104  105 2   
   109  104  121 1   
   110  106  107 1   
   111  106  108 1   
   112  106  112 1   
   113  107  109 1   
   114  107  113 1   
   115  107  114 1   
   116  108  115 1   
   117  108  116 1   
   118  108  117 1   
   119  109  118 1   
   120  109  119 1   
   121  109  120 1   
   122  121  122 1   
   123  121  127 1   
   124  122  123 1   
   125  122  125 1   
   126  122  128 1   
   127  123  124 2   
   128  123  132 1   
   129  125  126 1   
   130  125  129 1   
   131  125  130 1   
   132  126  131 1   
   133  132  133 1   
   134  132  137 1   
   135  133  134 1   
   136  133  136 1   
   137  133  138 1   
   138  134  135 2   
   139  134  142 1   
   140  136  139 1   
   141  136  140 1   
   142  136  141 1   
   143  142  143 1   
   144  142  147 1   
   145  143  144 1   
   146  143  146 1   
   147  143  148 1   
   148  144  145 2   
   149  144  152 1   
   150  146  149 1   
   151  146  150 1   
   152  146  151 1   
   153  152  153 1   
   154  152  161 1   
   155  153  154 1   
   156  153  156 1   
   157  153  162 1   
   158  154  155 2   
   159  154  167 1   
   160  156  157 1   
   161  156  163 1   
   162  156  164 1   
   163  157  158 1   
   164  157  165 1   
   165  157  166 1   
   166  158  159 1   
   167  158  160 1   
   168  167  168 1   
   169  167  172 1   
   170  168  169 1   
   171  168  170 1   
   172  168  171 1   
   173  174  176 1   
   174  174  178 1   
   175  175  177 1   
   176  175  179 1   
   177  180  181 1   
   178  180  182 1   
   179  183  184 1   
   180  183  185 1   
@<TRIPOS>SUBSTRUCTURE
     1 MOL         1 TEMP              0 ****  ****    0 ROOT
