@<TRIPOS>MOLECULE
MOL
  189   185     1     0     0
SMALL
resp


@<TRIPOS>ATOM
      1 C1          4.2180    4.5470   -3.0250 c3        1 MOL     -0.438684
      2 C2          4.9690    3.7180   -2.0030 c         1 MOL      0.951564
      3 O1          4.4790    3.3920   -0.9280 o         1 MOL     -0.780533
      4 H1          3.1470    4.3700   -2.9200 hc        1 MOL      0.109928
      5 H2          4.4280    5.6030   -2.8640 hc        1 MOL      0.109928
      6 H3          4.5340    4.2620   -4.0290 hc        1 MOL      0.109928
      7 N1          6.1860    3.2240   -2.3740 n         1 MOL     -0.757568
      8 C3          6.9080    2.0860   -1.8090 c3        1 MOL      0.347855
      9 C4          6.0610    0.7990   -1.6570 c         1 MOL      0.399463
     10 O2          5.4490    0.5160   -0.6310 o         1 MOL     -0.490082
     11 C5          7.8210    2.3780   -0.6430 c3        1 MOL     -0.127244
     12 C6          7.2280    3.2050    0.4610 c         1 MOL      0.835119
     13 O3          6.4160    2.6780    1.2650 o         1 MOL     -0.768874
     14 O4          7.5510    4.3930    0.5570 o         1 MOL     -0.768874
     15 H4          6.5530    3.5860   -3.2480 hn        1 MOL      0.314644
     16 H5          7.6000    1.8640   -2.6160 h1        1 MOL     -0.001096
     17 H6          8.6780    2.9380   -1.0140 hc        1 MOL      0.002601
     18 H7          8.1640    1.3950   -0.2940 hc        1 MOL      0.002601
     19 N2          5.8940    0.1270   -2.7930 n         1 MOL     -0.656688
     20 C7          4.9970   -1.0510   -3.0390 c3        1 MOL      0.365737
     21 C8          5.6420   -2.2690   -2.3820 c         1 MOL      0.373453
     22 O5          5.6480   -3.3140   -2.9980 o         1 MOL     -0.551466
     23 C9          3.4850   -0.8380   -2.6590 c3        1 MOL      0.339062
     24 C10         2.5740   -2.0810   -2.9760 c3        1 MOL     -0.323302
     25 C11         2.9120    0.4230   -3.3870 c3        1 MOL     -0.126693
     26 C12         2.6720   -2.6150   -4.4050 c3        1 MOL     -0.052773
     27 H8          6.3330    0.5530   -3.5960 hn        1 MOL      0.315608
     28 H9          5.0210   -1.2420   -4.1160 h1        1 MOL     -0.025084
     29 H10         3.4360   -0.6220   -1.5920 hc        1 MOL     -0.228570
     30 H11         1.5260   -1.8270   -2.8050 hc        1 MOL      0.145622
     31 H12         2.7900   -2.9390   -2.3410 hc        1 MOL      0.145622
     32 H13         2.9530    0.2720   -4.4650 hc        1 MOL      0.004231
     33 H14         1.8830    0.5970   -3.0740 hc        1 MOL      0.004231
     34 H15         3.5090    1.3190   -3.2320 hc        1 MOL      0.004231
     35 H16         2.5180   -1.8330   -5.1510 hc        1 MOL      0.001735
     36 H17         3.6100   -3.1150   -4.6100 hc        1 MOL      0.001735
     37 H18         1.8400   -3.3020   -4.5460 hc        1 MOL      0.001735
     38 N3          6.2760   -2.1960   -1.2270 n         1 MOL     -0.201447
     39 C13         7.0110   -3.2820   -0.5490 c3        1 MOL     -0.021346
     40 C14         6.2340   -4.6980   -0.3580 c         1 MOL      0.646639
     41 O6          6.7750   -5.7760   -0.5830 o         1 MOL     -0.609170
     42 C15         7.6390   -2.8100    0.7630 c3        1 MOL     -0.406249
     43 C16         8.3070   -1.4320    0.5640 c         1 MOL      0.832685
     44 O7          7.9920   -0.4880    1.3380 o         1 MOL     -0.728418
     45 O8          9.2580   -1.3040   -0.2780 o         1 MOL     -0.728418
     46 H19         6.1900   -1.3060   -0.7710 hn        1 MOL      0.231010
     47 H20         7.9410   -3.4820   -1.0840 h1        1 MOL      0.064245
     48 H21         8.4240   -3.5490    0.9320 hc        1 MOL      0.116728
     49 H22         7.0360   -2.8540    1.6670 hc        1 MOL      0.116728
     50 N4          4.9390   -4.7790    0.0060 n         1 MOL     -0.541987
     51 C17         4.0810   -3.7120    0.4510 c3        1 MOL      0.054062
     52 C18         2.7270   -4.2780    0.9600 c         1 MOL      0.635541
     53 O9          2.3290   -5.3220    0.5380 o         1 MOL     -0.580562
     54 H23         4.6420   -5.7140    0.2430 hn        1 MOL      0.316841
     55 H24         3.9480   -2.9640   -0.3320 h1        1 MOL      0.069972
     56 H25         4.6170   -3.1560    1.2180 h1        1 MOL      0.069972
     57 N5          2.1420   -3.7470    2.0690 n         1 MOL     -0.458131
     58 C19         2.3260   -2.4100    2.5480 c3        1 MOL     -0.015831
     59 C20         2.3180   -1.2140    1.5830 c         1 MOL      0.422855
     60 O10         3.3820   -0.7260    1.2370 o         1 MOL     -0.477961
     61 C21         3.5430   -2.2570    3.4630 c3        1 MOL     -0.025061
     62 C22         3.7350   -3.3680    4.4980 c         1 MOL      0.697040
     63 O11         2.9860   -3.3540    5.5180 o         1 MOL     -0.740131
     64 O12         4.6320   -4.1840    4.2370 o         1 MOL     -0.740131
     65 H26         1.3460   -4.2400    2.4650 hn        1 MOL      0.297190
     66 H27         1.4850   -2.2830    3.2320 h1        1 MOL      0.045522
     67 H28         3.2680   -1.3960    4.0720 hc        1 MOL     -0.044380
     68 H29         4.4670   -1.9210    2.9750 hc        1 MOL     -0.044380
     69 N6          1.1480   -0.8060    1.0450 n         1 MOL     -0.181857
     70 C23        -0.1850   -1.3350    1.3390 c3        1 MOL     -0.140835
     71 C24        -0.5610   -2.5610    0.5200 c         1 MOL      0.548579
     72 O13         0.1320   -3.0490   -0.4140 o         1 MOL     -0.543226
     73 H30         1.2350   -0.0880    0.3380 hn        1 MOL      0.181838
     74 H31        -0.9730   -0.5740    1.3300 h1        1 MOL      0.095019
     75 H32        -0.1750   -1.6290    2.3910 h1        1 MOL      0.095019
     76 N7         -1.7340   -3.1730    0.8230 n         1 MOL     -0.489538
     77 C25        -2.3760   -4.3200    0.1470 c3        1 MOL      0.030512
     78 C26        -3.0950   -3.9460   -1.1710 c         1 MOL      0.347355
     79 O14        -3.4480   -4.7670   -2.0120 o         1 MOL     -0.531531
     80 C27        -3.2280   -5.0620    1.1420 c3        1 MOL     -0.051369
     81 C28        -4.3450   -4.3880    1.9920 c3        1 MOL     -0.258335
     82 C29        -5.4900   -3.8500    1.0630 c         1 MOL      0.494275
     83 N8         -6.2610   -4.6720    0.4150 n         1 MOL     -0.619906
     84 O15        -5.6410   -2.6690    0.8530 o         1 MOL     -0.481256
     85 H33        -2.0680   -3.0540    1.7710 hn        1 MOL      0.292101
     86 H34        -1.5750   -5.0160   -0.0860 h1        1 MOL      0.160432
     87 H35        -2.5710   -5.5920    1.8310 hc        1 MOL      0.044148
     88 H36        -3.6860   -5.8620    0.5690 hc        1 MOL      0.044148
     89 H37        -3.9570   -3.5510    2.5790 hc        1 MOL      0.107288
     90 H38        -4.7650   -5.0860    2.7230 hc        1 MOL      0.107288
     91 H39        -6.3030   -5.6630    0.6050 hn        1 MOL      0.317332
     92 H40        -6.9090   -4.2370   -0.2320 hn        1 MOL      0.317332
     93 N9         -3.2680   -2.6690   -1.5880 n         1 MOL      0.025606
     94 C30        -3.7530   -2.2250   -2.8940 c3        1 MOL     -0.034561
     95 C31        -5.1470   -1.7080   -2.9900 c         1 MOL      0.285512
     96 O16        -5.6890   -1.4170   -4.0750 o         1 MOL     -0.550888
     97 C32        -2.8290   -1.1210   -3.4260 c3        1 MOL      0.038674
     98 C33        -1.4100   -1.6810   -3.8830 c3        1 MOL     -0.106736
     99 C34        -2.7790    0.1260   -2.5000 c3        1 MOL     -0.106736
    100 H41        -2.9720   -1.8770   -1.0300 hn        1 MOL      0.056365
    101 H42        -3.7870   -3.1000   -3.5490 h1        1 MOL      0.130008
    102 H43        -3.2650   -0.7090   -4.3470 hc        1 MOL      0.027586
    103 H44        -0.7800   -1.9870   -3.0440 hc        1 MOL      0.025411
    104 H45        -1.6720   -2.4980   -4.5470 hc        1 MOL      0.025411
    105 H46        -0.8640   -0.8600   -4.3490 hc        1 MOL      0.025411
    106 H47        -2.1390    0.9330   -2.8750 hc        1 MOL      0.025411
    107 H48        -3.7410    0.6050   -2.3250 hc        1 MOL      0.025411
    108 H49        -2.2510   -0.1570   -1.5910 hc        1 MOL      0.025411
    109 N10        -5.9450   -1.6100   -1.9290 n         1 MOL      0.036906
    110 C35        -7.2110   -0.9290   -1.9250 c3        1 MOL      0.070895
    111 C36        -7.1020    0.5160   -1.4730 c         1 MOL      0.274182
    112 O17        -8.1220    1.2620   -1.6660 o         1 MOL     -0.549241
    113 C37        -8.3500   -1.6400   -1.1280 c3        1 MOL     -0.058068
    114 C38        -8.6210   -2.9990   -1.8120 c         1 MOL      0.550791
    115 N11        -9.3000   -2.8990   -2.9550 n         1 MOL     -0.698682
    116 O18        -8.3470   -4.0630   -1.3070 o         1 MOL     -0.511626
    117 H50        -5.5780   -1.9940   -1.0740 hn        1 MOL      0.017814
    118 H51        -7.5820   -0.9020   -2.9520 h1        1 MOL      0.067497
    119 H52        -9.2520   -1.0290   -1.0970 hc        1 MOL      0.014241
    120 H53        -8.1290   -1.8480   -0.0800 hc        1 MOL      0.014241
    121 H54        -9.8080   -2.0740   -3.2260 hn        1 MOL      0.332862
    122 H55        -9.6980   -3.7620   -3.3020 hn        1 MOL      0.332862
    123 N12        -6.1170    1.0020   -0.7500 n         1 MOL     -0.047075
    124 C39        -6.1080    2.3380   -0.2240 c3        1 MOL      0.062106
    125 C40        -4.6910    2.9350    0.1420 c         1 MOL      0.332288
    126 O19        -3.7230    2.2390    0.2160 o         1 MOL     -0.384554
    127 C41        -7.1130    2.3540    1.0330 c3        1 MOL     -0.121816
    128 C42        -6.9570    1.1680    1.9250 ca        1 MOL      0.202546
    129 C43        -7.8930    0.0760    1.9200 ca        1 MOL     -0.345443
    130 C44        -5.8110    1.0880    2.7560 ca        1 MOL     -0.345443
    131 C45        -7.5690   -1.1180    2.6190 ca        1 MOL     -0.120324
    132 C46        -5.5830   -0.0610    3.5880 ca        1 MOL     -0.120324
    133 C47        -6.4180   -1.1530    3.4940 ca        1 MOL      0.184043
    134 O20        -6.0380   -2.2810    4.1180 oh        1 MOL     -0.407077
    135 H56        -5.2610    0.4780   -0.6240 hn        1 MOL      0.187720
    136 H57        -6.5330    3.0040   -0.9760 h1        1 MOL      0.029936
    137 H58        -8.1720    2.3140    0.7650 hc        1 MOL      0.037897
    138 H59        -6.9990    3.3140    1.5500 hc        1 MOL      0.037897
    139 H60        -8.7250    0.1720    1.2340 ha        1 MOL      0.185022
    140 H61        -5.1430    1.9280    2.8290 ha        1 MOL      0.185022
    141 H62        -8.2530   -1.9460    2.4620 ha        1 MOL      0.146960
    142 H63        -4.6780   -0.0990    4.1780 ha        1 MOL      0.146960
    143 H64        -6.5920   -2.9560    3.7240 ho        1 MOL      0.288211
    144 N13        -4.6560    4.1960    0.5660 n         1 MOL     -0.487751
    145 C48        -3.5610    4.9720    1.2490 c3        1 MOL     -0.098457
    146 C49        -2.2660    5.1820    0.3690 c         1 MOL      0.416669
    147 O21        -1.4790    6.0920    0.6180 o         1 MOL     -0.531143
    148 C50        -3.3090    4.3940    2.7110 c3        1 MOL      0.296994
    149 C51        -2.5970    5.3280    3.7060 c3        1 MOL     -0.540354
    150 C52        -2.0820    4.5410    5.0040 c         1 MOL      0.722583
    151 O22        -1.8720    3.3420    4.9660 o         1 MOL     -0.702659
    152 O23        -1.5740    5.1380    5.9520 o         1 MOL     -0.702659
    153 H65        -5.5460    4.6160    0.3270 hn        1 MOL      0.296175
    154 H66        -3.8460    6.0220    1.3780 h1        1 MOL      0.098262
    155 H67        -2.7520    3.4540    2.6750 hc        1 MOL     -0.004571
    156 H68        -4.2770    4.0820    3.1050 hc        1 MOL     -0.004571
    157 H69        -3.1950    6.1870    4.0050 hc        1 MOL      0.109624
    158 H70        -1.7460    5.6850    3.1220 hc        1 MOL      0.109624
    159 N14        -1.9990    4.3280   -0.6480 n         1 MOL     -0.061699
    160 C53        -0.8250    4.4460   -1.4850 c3        1 MOL     -0.356998
    161 C54        -1.0190    5.4220   -2.7090 c         1 MOL      0.576386
    162 O24        -0.0040    5.9560   -3.2260 o         1 MOL     -0.582464
    163 C55        -0.4230    3.0550   -2.0550 c3        1 MOL      0.294940
    164 C56        -0.3780    1.9850   -0.9560 c3        1 MOL      0.309092
    165 C57         0.5870    2.2700    0.1980 c         1 MOL      0.270709
    166 O25         0.2490    2.9230    1.1770 o         1 MOL     -0.498507
    167 O26         1.7600    1.8630    0.0440 o         1 MOL     -0.498507
    168 H71        -2.5180    3.4600   -0.5880 hn        1 MOL      0.122477
    169 H72        -0.0340    4.7290   -0.7960 h1        1 MOL      0.208429
    170 H73         0.5230    3.1800   -2.5780 hc        1 MOL     -0.095778
    171 H74        -1.1790    2.8160   -2.8090 hc        1 MOL     -0.095778
    172 H75        -0.0000    1.1140   -1.4960 hc        1 MOL     -0.078815
    173 H76        -1.3910    1.8300   -0.6000 hc        1 MOL     -0.078815
    174 N15        -2.1820    5.5660   -3.1980 n         1 MOL     -0.183223
    175 C58        -2.7510    6.5420   -4.1370 c3        1 MOL     -0.346086
    176 H77        -3.8370    6.4540   -4.1380 h1        1 MOL      0.130276
    177 H78        -2.4690    7.5490   -3.8310 h1        1 MOL      0.130276
    178 H79        -2.3710    6.3460   -5.1400 h1        1 MOL      0.130276
    179 H80        -2.8710    5.2350   -2.5300 hn        1 MOL      0.162238
    180 Ca1         4.0790    1.8500    1.1110 Ca        1 MOL      1.728862
    181 O27         5.8050    0.2830    2.4380 oh        1 MOL     -0.862335
    182 H81         5.8720   -0.1580    3.2790 ho        1 MOL      0.424681
    183 H82         6.6610    0.1810    2.0330 ho        1 MOL      0.424681
    184 O28         2.4270    1.5360    3.1270 oh        1 MOL     -0.862335
    185 H83         1.4730    1.4950    3.0500 ho        1 MOL      0.424681
    186 H84         2.5970    1.4690    4.0610 ho        1 MOL      0.424681
    187 O29         3.9640    4.3160    2.3520 oh        1 MOL     -0.862335
    188 H85         3.1810    4.8690    2.4170 ho        1 MOL      0.424681
    189 H86         4.6760    4.9290    2.1670 ho        1 MOL      0.424681
@<TRIPOS>BOND
     1    1    2 1   
     2    1    4 1   
     3    1    5 1   
     4    1    6 1   
     5    2    3 2   
     6    2    7 1   
     7    7    8 1   
     8    7   15 1   
     9    8    9 1   
    10    8   11 1   
    11    8   16 1   
    12    9   10 2   
    13    9   19 1   
    14   11   12 1   
    15   11   17 1   
    16   11   18 1   
    17   12   13 1   
    18   12   14 1   
    19   19   20 1   
    20   19   27 1   
    21   20   21 1   
    22   20   23 1   
    23   20   28 1   
    24   21   22 2   
    25   21   38 1   
    26   23   24 1   
    27   23   25 1   
    28   23   29 1   
    29   24   26 1   
    30   24   30 1   
    31   24   31 1   
    32   25   32 1   
    33   25   33 1   
    34   25   34 1   
    35   26   35 1   
    36   26   36 1   
    37   26   37 1   
    38   38   39 1   
    39   38   46 1   
    40   39   40 1   
    41   39   42 1   
    42   39   47 1   
    43   40   41 2   
    44   40   50 1   
    45   42   43 1   
    46   42   48 1   
    47   42   49 1   
    48   43   44 1   
    49   43   45 1   
    50   50   51 1   
    51   50   54 1   
    52   51   52 1   
    53   51   55 1   
    54   51   56 1   
    55   52   53 2   
    56   52   57 1   
    57   57   58 1   
    58   57   65 1   
    59   58   59 1   
    60   58   61 1   
    61   58   66 1   
    62   59   60 2   
    63   59   69 1   
    64   61   62 1   
    65   61   67 1   
    66   61   68 1   
    67   62   63 1   
    68   62   64 1   
    69   69   70 1   
    70   69   73 1   
    71   70   71 1   
    72   70   74 1   
    73   70   75 1   
    74   71   72 2   
    75   71   76 1   
    76   76   77 1   
    77   76   85 1   
    78   77   78 1   
    79   77   80 1   
    80   77   86 1   
    81   78   79 2   
    82   78   93 1   
    83   80   81 1   
    84   80   87 1   
    85   80   88 1   
    86   81   82 1   
    87   81   89 1   
    88   81   90 1   
    89   82   83 1   
    90   82   84 2   
    91   83   91 1   
    92   83   92 1   
    93   93   94 1   
    94   93  100 1   
    95   94   95 1   
    96   94   97 1   
    97   94  101 1   
    98   95   96 2   
    99   95  109 1   
   100   97   98 1   
   101   97   99 1   
   102   97  102 1   
   103   98  103 1   
   104   98  104 1   
   105   98  105 1   
   106   99  106 1   
   107   99  107 1   
   108   99  108 1   
   109  109  110 1   
   110  109  117 1   
   111  110  111 1   
   112  110  113 1   
   113  110  118 1   
   114  111  112 2   
   115  111  123 1   
   116  113  114 1   
   117  113  119 1   
   118  113  120 1   
   119  114  115 1   
   120  114  116 2   
   121  115  121 1   
   122  115  122 1   
   123  123  124 1   
   124  123  135 1   
   125  124  125 1   
   126  124  127 1   
   127  124  136 1   
   128  125  126 2   
   129  125  144 1   
   130  127  128 1   
   131  127  137 1   
   132  127  138 1   
   133  128  129 ar  
   134  128  130 ar  
   135  129  131 ar  
   136  129  139 1   
   137  130  132 ar  
   138  130  140 1   
   139  131  133 ar  
   140  131  141 1   
   141  132  133 ar  
   142  132  142 1   
   143  133  134 1   
   144  134  143 1   
   145  144  145 1   
   146  144  153 1   
   147  145  146 1   
   148  145  148 1   
   149  145  154 1   
   150  146  147 2   
   151  146  159 1   
   152  148  149 1   
   153  148  155 1   
   154  148  156 1   
   155  149  150 1   
   156  149  157 1   
   157  149  158 1   
   158  150  151 1   
   159  150  152 1   
   160  159  160 1   
   161  159  168 1   
   162  160  161 1   
   163  160  163 1   
   164  160  169 1   
   165  161  162 2   
   166  161  174 1   
   167  163  164 1   
   168  163  170 1   
   169  163  171 1   
   170  164  165 1   
   171  164  172 1   
   172  164  173 1   
   173  165  166 1   
   174  165  167 1   
   175  174  175 1   
   176  174  179 1   
   177  175  176 1   
   178  175  177 1   
   179  175  178 1   
   180  181  182 1   
   181  181  183 1   
   182  184  185 1   
   183  184  186 1   
   184  187  188 1   
   185  187  189 1   
@<TRIPOS>SUBSTRUCTURE
     1 MOL         1 TEMP              0 ****  ****    0 ROOT
