@<TRIPOS>MOLECULE
MOL
  182   178     1     0     0
SMALL
resp


@<TRIPOS>ATOM
      1 C1          1.8780   -5.4340    5.7000 c3        1 MOL     -0.389578
      2 C2          1.8690   -4.8350    4.2580 c         1 MOL      0.705591
      3 O1          1.1010   -5.2480    3.4040 o         1 MOL     -0.582882
      4 H1          1.2360   -6.3140    5.7300 hc        1 MOL      0.112351
      5 H2          2.8950   -5.7190    5.9690 hc        1 MOL      0.112351
      6 H3          1.5090   -4.6910    6.4060 hc        1 MOL      0.112351
      7 N1          2.8330   -3.8770    3.9760 n         1 MOL     -0.655181
      8 C3          3.0080   -3.3050    2.6440 c3        1 MOL     -0.059467
      9 C4          3.8290   -4.2760    1.7590 c         1 MOL      0.722061
     10 O2          4.9520   -4.6970    2.0730 o         1 MOL     -0.564016
     11 C5          3.7360   -1.9720    2.7930 c3        1 MOL      0.140245
     12 C6          3.8970   -1.0650    1.5940 c         1 MOL      0.285513
     13 O3          4.2300    0.1260    1.6470 o         1 MOL     -0.572127
     14 O4          3.7350   -1.5860    0.4980 o         1 MOL     -0.572127
     15 H4          3.2980   -3.4980    4.7920 hn        1 MOL      0.331619
     16 H5          2.0010   -3.2200    2.2290 h1        1 MOL      0.012225
     17 H6          4.6940   -2.3210    3.1800 hc        1 MOL      0.025911
     18 H7          3.3210   -1.3940    3.6150 hc        1 MOL      0.025911
     19 N2          3.2340   -4.5470    0.6110 n         1 MOL     -0.278582
     20 C7          3.8850   -5.4420   -0.3470 c3        1 MOL     -0.180996
     21 C8          5.1600   -4.8820   -0.9850 c         1 MOL      0.562721
     22 O5          5.9040   -5.6160   -1.5760 o         1 MOL     -0.553054
     23 C9          2.8280   -5.9000   -1.4960 c3        1 MOL      0.007453
     24 C10         1.9860   -4.7620   -2.1030 c3        1 MOL      0.012771
     25 C11         1.2760   -5.1680   -3.4100 c3        1 MOL     -0.083009
     26 C12         0.1820   -4.1860   -3.6370 c3        1 MOL      0.123236
     27 N3         -0.5690   -4.4900   -4.8930 n4        1 MOL     -0.265674
     28 H8          2.3100   -4.2170    0.3720 hn        1 MOL      0.159846
     29 H9          4.1840   -6.3600    0.1610 h1        1 MOL      0.122983
     30 H10         2.0950   -6.6330   -1.1590 hc        1 MOL      0.029296
     31 H11         3.3850   -6.4450   -2.2430 hc        1 MOL      0.029296
     32 H12         2.6280   -3.9040   -2.2880 hc        1 MOL      0.033987
     33 H13         1.2180   -4.3920   -1.4160 hc        1 MOL      0.033987
     34 H14         0.9920   -6.2240   -3.4520 hc        1 MOL      0.048047
     35 H15         2.0240   -5.0680   -4.1950 hc        1 MOL      0.048047
     36 H16         0.6510   -3.2160   -3.7780 hx        1 MOL      0.028983
     37 H17        -0.4730   -4.2110   -2.7680 hx        1 MOL      0.028983
     38 H18         0.1770   -4.6870   -5.5520 hn        1 MOL      0.260686
     39 H19        -1.1710   -5.3030   -4.8340 hn        1 MOL      0.260686
     40 H20        -1.1100   -3.7340   -5.2930 hn        1 MOL      0.260686
     41 N4          5.3520   -3.5800   -1.0290 n         1 MOL     -0.325949
     42 C13         6.6100   -3.0170   -1.6510 c3        1 MOL      0.039600
     43 C14         7.4310   -2.0320   -0.7770 c         1 MOL      0.412381
     44 O6          8.4660   -1.6070   -1.2510 o         1 MOL     -0.534867
     45 C15         6.2930   -2.3270   -3.0190 c3        1 MOL     -0.323042
     46 C16         5.3040   -1.0770   -3.0040 c         1 MOL      0.845393
     47 O7          4.9410   -0.6690   -4.1110 o         1 MOL     -0.725010
     48 O8          4.8970   -0.6480   -1.9250 o         1 MOL     -0.725010
     49 H21         4.5990   -2.9430   -0.8290 hn        1 MOL      0.167950
     50 H22         7.3450   -3.7820   -1.8890 h1        1 MOL      0.126665
     51 H23         5.8870   -3.1000   -3.6620 hc        1 MOL      0.094745
     52 H24         7.1880   -1.8760   -3.4450 hc        1 MOL      0.094745
     53 N5          6.8160   -1.4970    0.2820 n         1 MOL     -0.096213
     54 C17         7.3610   -0.5030    1.2200 c3        1 MOL     -0.301319
     55 C18         7.2460    0.9180    0.7460 c         1 MOL      0.621210
     56 O9          7.6580    1.8400    1.4670 o         1 MOL     -0.581060
     57 H25         5.8680   -1.7700    0.4550 hn        1 MOL      0.087303
     58 H26         8.4120   -0.6510    1.4610 h1        1 MOL      0.148411
     59 H27         6.8780   -0.5260    2.1910 h1        1 MOL      0.148411
     60 N6          6.6810    1.2050   -0.4540 n         1 MOL     -0.339353
     61 C19         6.5630    2.5580   -1.0040 c3        1 MOL     -0.094665
     62 C20         5.1600    3.1780   -0.6990 c         1 MOL      0.555651
     63 O10         4.0930    2.6500   -0.8770 o         1 MOL     -0.579234
     64 C21         6.7570    2.3230   -2.5340 c3        1 MOL     -0.288193
     65 C22         6.8880    3.6530   -3.2450 c         1 MOL      0.762809
     66 N7          7.9330    4.3900   -3.0270 n         1 MOL     -0.915299
     67 O11         6.0530    4.0270   -4.0280 o         1 MOL     -0.581073
     68 H28         6.3770    0.4240   -1.0180 hn        1 MOL      0.279402
     69 H29         7.3030    3.2200   -0.5440 h1        1 MOL      0.073372
     70 H30         6.0220    1.6400   -2.9520 hc        1 MOL      0.119667
     71 H31         7.7410    1.8640   -2.6810 hc        1 MOL      0.119667
     72 H32         8.5720    4.2080   -2.2690 hn        1 MOL      0.393363
     73 H33         8.2650    5.0480   -3.7310 hn        1 MOL      0.393363
     74 N8          5.1470    4.4860   -0.4890 n         1 MOL     -0.210649
     75 C23         4.0230    5.4390   -0.4760 c3        1 MOL     -0.268015
     76 C24         3.0950    5.0150    0.6560 c         1 MOL      0.711131
     77 O12         3.5130    4.9360    1.8160 o         1 MOL     -0.536172
     78 H34         6.0510    4.8650   -0.2230 hn        1 MOL      0.244663
     79 H35         3.4650    5.3970   -1.4090 h1        1 MOL      0.128993
     80 H36         4.3960    6.4350   -0.2700 h1        1 MOL      0.128993
     81 N9          1.8050    4.6930    0.3440 n         1 MOL     -0.825594
     82 C25         0.8230    4.1790    1.3020 c3        1 MOL      0.634871
     83 C26         1.0570    2.6870    1.6120 c         1 MOL      0.374937
     84 O13         1.9530    1.9980    1.1360 o         1 MOL     -0.387234
     85 C27        -0.6190    4.4590    0.7890 c3        1 MOL     -0.264684
     86 C28        -0.8570    5.9060    0.4890 ca        1 MOL      0.055441
     87 C29        -1.1230    6.3910   -0.7740 ca        1 MOL     -0.139858
     88 C30        -0.8460    6.9080    1.5160 ca        1 MOL     -0.139858
     89 C31        -1.2500    7.7770   -1.0600 ca        1 MOL     -0.287155
     90 C32        -0.9620    8.2890    1.2560 ca        1 MOL     -0.287155
     91 C33        -1.2440    8.7320   -0.0600 ca        1 MOL      0.364391
     92 O14        -1.4480   10.0170   -0.2570 oh        1 MOL     -0.419555
     93 H37         1.6020    4.6790   -0.6520 hn        1 MOL      0.338163
     94 H38         0.9490    4.7010    2.2510 h1        1 MOL     -0.009897
     95 H39        -1.2730    4.0910    1.5720 hc        1 MOL      0.067252
     96 H40        -0.8720    3.8970   -0.1170 hc        1 MOL      0.067252
     97 H41        -1.1950    5.6610   -1.5640 ha        1 MOL      0.117053
     98 H42        -0.6000    6.6380    2.5250 ha        1 MOL      0.117053
     99 H43        -1.4510    8.1120   -2.0680 ha        1 MOL      0.161110
    100 H44        -0.9800    8.9750    2.0960 ha        1 MOL      0.161110
    101 H45        -1.3690   10.1740   -1.1980 ho        1 MOL      0.336450
    102 N10         0.2600    2.2370    2.5810 n         1 MOL     -0.668997
    103 C34        -0.0800    0.8920    2.9760 c3        1 MOL     -0.044177
    104 C35        -0.3400   -0.1000    1.7810 c         1 MOL      0.510883
    105 O15         0.5230   -0.4180    0.9870 o         1 MOL     -0.451569
    106 C36         0.9330    0.3010    4.0430 c3        1 MOL      0.537995
    107 C37         0.2430   -0.8460    4.7800 c3        1 MOL     -0.312130
    108 C38         1.6150    1.3250    4.9940 c3        1 MOL     -0.357980
    109 C39        -0.9740   -0.5530    5.6750 c3        1 MOL     -0.294860
    110 H46        -0.1680    2.9970    3.0950 hn        1 MOL      0.316773
    111 H47        -1.0470    1.0250    3.4760 h1        1 MOL      0.085024
    112 H48         1.8160   -0.1560    3.5990 hc        1 MOL     -0.090699
    113 H49         1.0090   -1.2780    5.4330 hc        1 MOL      0.115604
    114 H50        -0.1230   -1.5150    4.0040 hc        1 MOL      0.115604
    115 H51         2.2230    2.0140    4.4170 hc        1 MOL      0.090708
    116 H52         0.8540    1.8730    5.5520 hc        1 MOL      0.090708
    117 H53         2.2210    0.8990    5.7950 hc        1 MOL      0.090708
    118 H54        -1.2870   -1.4830    6.1420 hc        1 MOL      0.080883
    119 H55        -0.6500    0.1660    6.4240 hc        1 MOL      0.080883
    120 H56        -1.7130   -0.1630    4.9680 hc        1 MOL      0.080883
    121 N11        -1.5730   -0.5840    1.7220 n         1 MOL     -0.477799
    122 C40        -2.0450   -1.5480    0.6480 c3        1 MOL      0.037044
    123 C41        -3.5790   -1.5070    0.3230 c         1 MOL      0.506555
    124 O16        -3.9670   -2.3050   -0.5150 o         1 MOL     -0.503429
    125 C42        -1.6300   -2.9700    1.0570 c3        1 MOL     -0.073938
    126 O17        -0.2100   -3.1900    0.8530 oh        1 MOL     -0.452343
    127 H57        -2.2980   -0.4180    2.3980 hn        1 MOL      0.319752
    128 H58        -1.4610   -1.2100   -0.2080 h1        1 MOL      0.099937
    129 H59        -2.2190   -3.5880    0.3740 h1        1 MOL      0.086832
    130 H60        -1.9580   -3.1900    2.0710 h1        1 MOL      0.086832
    131 H61        -0.1450   -4.1410    0.9630 ho        1 MOL      0.402070
    132 N12        -4.4060   -0.5010    0.7010 n         1 MOL     -0.527742
    133 C43        -5.8910   -0.5680    0.3280 c3        1 MOL      0.141978
    134 C44        -6.0600   -0.0410   -1.1010 c         1 MOL      0.583407
    135 O18        -5.3250    0.7520   -1.6150 o         1 MOL     -0.550111
    136 C45        -6.7060    0.1510    1.4200 c3        1 MOL     -0.258820
    137 H62        -4.0380    0.1450    1.3890 hn        1 MOL      0.271173
    138 H63        -6.2650   -1.5830    0.3190 h1        1 MOL      0.109290
    139 H64        -6.7120    1.2390    1.3690 hc        1 MOL      0.086149
    140 H65        -7.7090   -0.2650    1.3050 hc        1 MOL      0.086149
    141 H66        -6.2290   -0.0990    2.3700 hc        1 MOL      0.086149
    142 N13        -7.1600   -0.3750   -1.8120 n         1 MOL     -0.559945
    143 C46        -8.4470   -0.9580   -1.4000 c3        1 MOL      0.212764
    144 C47        -9.6570   -0.0460   -1.8760 c         1 MOL      0.433921
    145 O19        -9.5990    0.6760   -2.8730 o         1 MOL     -0.527745
    146 C48        -8.5900   -2.3280   -1.9180 c3        1 MOL     -0.002186
    147 H67        -7.2560    0.2260   -2.6170 hn        1 MOL      0.302933
    148 H68        -8.5910   -1.1290   -0.3370 h1        1 MOL      0.012029
    149 H69        -7.8450   -2.9580   -1.4170 hc        1 MOL      0.005843
    150 H70        -9.5940   -2.7400   -1.8550 hc        1 MOL      0.005843
    151 H71        -8.1990   -2.4250   -2.9380 hc        1 MOL      0.005843
    152 N14       -10.7320    0.0100   -1.1260 n         1 MOL     -0.303831
    153 C49       -10.9490   -0.6150    0.1820 c3        1 MOL     -0.307733
    154 C50       -10.5390    0.2470    1.3800 c         1 MOL      0.509865
    155 O20        -9.9950   -0.3370    2.3490 o         1 MOL     -0.533756
    156 C51       -12.4480   -0.8010    0.1540 c3        1 MOL      0.034912
    157 C52       -12.9130   -1.9320   -0.7660 c3        1 MOL     -0.101484
    158 C53       -13.0140   -1.7140   -2.2610 c         1 MOL      0.718118
    159 O21       -13.1620   -0.5260   -2.6990 o         1 MOL     -0.666759
    160 O22       -12.8980   -2.7050   -3.0220 o         1 MOL     -0.666759
    161 H72       -11.4000    0.7070   -1.4280 hn        1 MOL      0.295425
    162 H73       -10.5320   -1.6170    0.3030 h1        1 MOL      0.179058
    163 H74       -13.0460    0.0700   -0.0970 hc        1 MOL      0.021165
    164 H75       -12.7220   -1.1050    1.1640 hc        1 MOL      0.021165
    165 H76       -13.9060   -2.2000   -0.4140 hc        1 MOL      0.007784
    166 H77       -12.2380   -2.7690   -0.5530 hc        1 MOL      0.007784
    167 N15       -10.5880    1.5350    1.2650 n         1 MOL     -0.386407
    168 C54        -9.9890    2.3990    2.3920 c3        1 MOL     -0.023134
    169 H78        -9.2560    3.0880    1.9700 h1        1 MOL      0.064875
    170 H79       -10.7830    2.9660    2.8770 h1        1 MOL      0.064875
    171 H80        -9.5010    1.7550    3.1240 h1        1 MOL      0.064875
    172 H81       -10.9420    1.9860    0.4330 hn        1 MOL      0.297307
    173 Ca1         2.6660    0.3200   -0.8290 Ca        1 MOL      1.702617
    174 O23         2.9070    0.8750   -3.4190 oh        1 MOL     -0.843033
    175 H82         2.4020    0.9910   -4.2300 ho        1 MOL      0.402745
    176 H83         3.6450    0.3290   -3.6850 ho        1 MOL      0.402745
    177 O24         1.2220   -1.5550   -2.0340 oh        1 MOL     -0.843033
    178 H84         1.1490   -1.3550   -2.9630 ho        1 MOL      0.402745
    179 H85         0.3250   -1.5980   -1.7160 ho        1 MOL      0.402745
    180 O25         0.4000    1.5370   -1.5630 oh        1 MOL     -0.843033
    181 H86         0.4180    2.3950   -2.0030 ho        1 MOL      0.402745
    182 H87        -0.5070    1.4280   -1.2950 ho        1 MOL      0.402745
@<TRIPOS>BOND
     1    1    2 1   
     2    1    4 1   
     3    1    5 1   
     4    1    6 1   
     5    2    3 2   
     6    2    7 1   
     7    7    8 1   
     8    7   15 1   
     9    8    9 1   
    10    8   11 1   
    11    8   16 1   
    12    9   10 2   
    13    9   19 1   
    14   11   12 1   
    15   11   17 1   
    16   11   18 1   
    17   12   13 1   
    18   12   14 1   
    19   19   20 1   
    20   19   28 1   
    21   20   21 1   
    22   20   23 1   
    23   20   29 1   
    24   21   22 2   
    25   21   41 1   
    26   23   24 1   
    27   23   30 1   
    28   23   31 1   
    29   24   25 1   
    30   24   32 1   
    31   24   33 1   
    32   25   26 1   
    33   25   34 1   
    34   25   35 1   
    35   26   27 1   
    36   26   36 1   
    37   26   37 1   
    38   27   38 1   
    39   27   39 1   
    40   27   40 1   
    41   41   42 1   
    42   41   49 1   
    43   42   43 1   
    44   42   45 1   
    45   42   50 1   
    46   43   44 2   
    47   43   53 1   
    48   45   46 1   
    49   45   51 1   
    50   45   52 1   
    51   46   47 1   
    52   46   48 1   
    53   53   54 1   
    54   53   57 1   
    55   54   55 1   
    56   54   58 1   
    57   54   59 1   
    58   55   56 2   
    59   55   60 1   
    60   60   61 1   
    61   60   68 1   
    62   61   62 1   
    63   61   64 1   
    64   61   69 1   
    65   62   63 2   
    66   62   74 1   
    67   64   65 1   
    68   64   70 1   
    69   64   71 1   
    70   65   66 1   
    71   65   67 2   
    72   66   72 1   
    73   66   73 1   
    74   74   75 1   
    75   74   78 1   
    76   75   76 1   
    77   75   79 1   
    78   75   80 1   
    79   76   77 2   
    80   76   81 1   
    81   81   82 1   
    82   81   93 1   
    83   82   83 1   
    84   82   85 1   
    85   82   94 1   
    86   83   84 2   
    87   83  102 1   
    88   85   86 1   
    89   85   95 1   
    90   85   96 1   
    91   86   87 ar  
    92   86   88 ar  
    93   87   89 ar  
    94   87   97 1   
    95   88   90 ar  
    96   88   98 1   
    97   89   91 ar  
    98   89   99 1   
    99   90   91 ar  
   100   90  100 1   
   101   91   92 1   
   102   92  101 1   
   103  102  103 1   
   104  102  110 1   
   105  103  104 1   
   106  103  106 1   
   107  103  111 1   
   108  104  105 2   
   109  104  121 1   
   110  106  107 1   
   111  106  108 1   
   112  106  112 1   
   113  107  109 1   
   114  107  113 1   
   115  107  114 1   
   116  108  115 1   
   117  108  116 1   
   118  108  117 1   
   119  109  118 1   
   120  109  119 1   
   121  109  120 1   
   122  121  122 1   
   123  121  127 1   
   124  122  123 1   
   125  122  125 1   
   126  122  128 1   
   127  123  124 2   
   128  123  132 1   
   129  125  126 1   
   130  125  129 1   
   131  125  130 1   
   132  126  131 1   
   133  132  133 1   
   134  132  137 1   
   135  133  134 1   
   136  133  136 1   
   137  133  138 1   
   138  134  135 2   
   139  134  142 1   
   140  136  139 1   
   141  136  140 1   
   142  136  141 1   
   143  142  143 1   
   144  142  147 1   
   145  143  144 1   
   146  143  146 1   
   147  143  148 1   
   148  144  145 2   
   149  144  152 1   
   150  146  149 1   
   151  146  150 1   
   152  146  151 1   
   153  152  153 1   
   154  152  161 1   
   155  153  154 1   
   156  153  156 1   
   157  153  162 1   
   158  154  155 2   
   159  154  167 1   
   160  156  157 1   
   161  156  163 1   
   162  156  164 1   
   163  157  158 1   
   164  157  165 1   
   165  157  166 1   
   166  158  159 1   
   167  158  160 1   
   168  167  168 1   
   169  167  172 1   
   170  168  169 1   
   171  168  170 1   
   172  168  171 1   
   173  174  175 1   
   174  174  176 1   
   175  177  178 1   
   176  177  179 1   
   177  180  181 1   
   178  180  182 1   
@<TRIPOS>SUBSTRUCTURE
     1 MOL         1 TEMP              0 ****  ****    0 ROOT
