@<TRIPOS>MOLECULE
MOL
  189   185     1     0     0
SMALL
resp


@<TRIPOS>ATOM
      1 C1         -3.9990   -4.7000   -3.1320 c3        1 MOL     -0.426759
      2 C2         -4.8620   -3.8300   -2.2060 c         1 MOL      0.682086
      3 O1         -4.4470   -3.5540   -1.0880 o         1 MOL     -0.544054
      4 H1         -4.6400   -5.2080   -3.8540 hc        1 MOL      0.115685
      5 H2         -3.2840   -4.0700   -3.6620 hc        1 MOL      0.115685
      6 H3         -3.4630   -5.4420   -2.5400 hc        1 MOL      0.115685
      7 N1         -6.0290   -3.3650   -2.6610 n         1 MOL     -0.632566
      8 C3         -6.9040   -2.3730   -2.0200 c3        1 MOL      0.293393
      9 C4         -6.1720   -1.1690   -1.6010 c         1 MOL      0.259832
     10 O2         -5.6740   -0.9170   -0.5080 o         1 MOL     -0.516629
     11 C5         -7.8790   -2.8680   -0.9850 c3        1 MOL     -0.052750
     12 C6         -7.3210   -3.7230    0.1390 c         1 MOL      0.674813
     13 O3         -6.4360   -3.2160    0.8370 o         1 MOL     -0.705455
     14 O4         -7.9020   -4.8110    0.4410 o         1 MOL     -0.705455
     15 H4         -6.2960   -3.5840   -3.6070 hn        1 MOL      0.315960
     16 H5         -7.5290   -1.9570   -2.8120 h1        1 MOL      0.005210
     17 H6         -8.6460   -3.4440   -1.5090 hc        1 MOL     -0.004866
     18 H7         -8.4590   -2.0550   -0.5570 hc        1 MOL     -0.004866
     19 N2         -5.9180   -0.3900   -2.7260 n         1 MOL     -0.611276
     20 C7         -5.1440    0.8890   -2.8710 c3        1 MOL      0.422836
     21 C8         -5.8070    2.0710   -2.1880 c         1 MOL      0.243652
     22 O5         -6.1660    2.9700   -2.9200 o         1 MOL     -0.543138
     23 C9         -3.6260    0.7560   -2.4860 c3        1 MOL      0.060457
     24 C10        -2.8570    2.0670   -2.6780 c3        1 MOL      0.075588
     25 C11        -2.8590   -0.4030   -3.1810 c3        1 MOL     -0.604224
     26 C12        -2.6820    2.4690   -4.1330 c3        1 MOL     -0.230902
     27 H8         -6.1620   -0.8820   -3.5690 hn        1 MOL      0.305393
     28 H9         -5.2600    1.0950   -3.9340 h1        1 MOL     -0.022405
     29 H10        -3.6110    0.5970   -1.4070 hc        1 MOL      0.068062
     30 H11        -1.8820    1.8830   -2.2340 hc        1 MOL      0.016378
     31 H12        -3.2850    2.8560   -2.0570 hc        1 MOL      0.016378
     32 H13        -1.8100   -0.2130   -2.9420 hc        1 MOL      0.152999
     33 H14        -2.9740   -1.3760   -2.7050 hc        1 MOL      0.152999
     34 H15        -3.1230   -0.3730   -4.2390 hc        1 MOL      0.152999
     35 H16        -3.7030    2.6810   -4.4420 hc        1 MOL      0.042197
     36 H17        -2.2610    3.4600   -4.2290 hc        1 MOL      0.042197
     37 H18        -2.2020    1.6810   -4.7160 hc        1 MOL      0.042197
     38 N3         -6.2180    1.9720   -0.9140 n         1 MOL     -0.089071
     39 C13        -7.2850    2.8900   -0.3670 c3        1 MOL     -0.029525
     40 C14        -6.8150    4.2640    0.1690 c         1 MOL      0.594493
     41 O6         -7.5540    5.2200    0.0300 o         1 MOL     -0.536827
     42 C15        -8.0850    2.1440    0.7630 c3        1 MOL     -0.400398
     43 C16        -9.2250    3.0020    1.3020 c         1 MOL      0.764226
     44 O7         -9.2190    3.2970    2.4980 o         1 MOL     -0.731292
     45 O8        -10.1630    3.4110    0.5700 o         1 MOL     -0.731292
     46 H19        -6.0970    1.0300   -0.5600 hn        1 MOL      0.332621
     47 H20        -7.9870    3.1540   -1.1610 h1        1 MOL      0.074267
     48 H21        -7.3430    1.8670    1.5100 hc        1 MOL      0.096072
     49 H22        -8.4730    1.2510    0.2680 hc        1 MOL      0.096072
     50 N4         -5.6070    4.4890    0.6760 n         1 MOL     -0.568701
     51 C17        -4.6100    3.4810    1.1080 c3        1 MOL      0.273266
     52 C18        -3.5030    4.0880    1.9060 c         1 MOL      0.487611
     53 O9         -3.4980    5.2690    2.1630 o         1 MOL     -0.559141
     54 H23        -5.3570    5.4460    0.8830 hn        1 MOL      0.289575
     55 H24        -4.2020    2.9750    0.2270 h1        1 MOL      0.013301
     56 H25        -5.0510    2.7080    1.7360 h1        1 MOL      0.013301
     57 N5         -2.5750    3.2900    2.4470 n         1 MOL     -0.423715
     58 C19        -2.4590    1.8040    2.6500 c3        1 MOL      0.234875
     59 C20        -2.6220    1.0450    1.3280 c         1 MOL      0.071591
     60 O10        -3.7390    0.6240    1.1000 o         1 MOL     -0.718631
     61 C21        -3.3810    1.3510    3.7600 c3        1 MOL     -0.319979
     62 C22        -3.1600   -0.1220    4.1000 c         1 MOL      0.705006
     63 O11        -3.2770   -0.4890    5.3150 o         1 MOL     -0.681772
     64 O12        -2.8900   -0.9900    3.2310 o         1 MOL     -0.681772
     65 H26        -1.8890    3.8450    2.9380 hn        1 MOL      0.239477
     66 H27        -1.4770    1.6280    3.0980 h1        1 MOL      0.093217
     67 H28        -4.4060    1.5760    3.4620 hc        1 MOL      0.081089
     68 H29        -3.0820    1.9220    4.6360 hc        1 MOL      0.081089
     69 N6         -1.5630    0.7880    0.6010 n         1 MOL      0.010437
     70 C23        -0.0770    1.0170    0.8250 c3        1 MOL     -0.206332
     71 C24         0.4820    2.3390    0.2720 c         1 MOL      0.372837
     72 O13        -0.1950    2.9110   -0.5870 o         1 MOL     -0.471863
     73 H30        -1.7830    0.1150   -0.1120 hn        1 MOL      0.281169
     74 H31         0.4620    0.1960    0.3520 h1        1 MOL      0.079363
     75 H32         0.1280    1.0530    1.9000 h1        1 MOL      0.079363
     76 N7          1.6520    2.8300    0.6560 n         1 MOL     -0.260058
     77 C25         2.3080    4.0270    0.1720 c3        1 MOL     -0.063415
     78 C26         2.7210    3.8810   -1.3490 c         1 MOL      0.420046
     79 O14         2.5670    4.8260   -2.0940 o         1 MOL     -0.500535
     80 C27         3.5770    4.4380    0.9920 c3        1 MOL     -0.148347
     81 C28         3.2800    5.4110    2.0990 c3        1 MOL      0.057697
     82 C29         2.6620    6.7540    1.7250 c         1 MOL      0.641566
     83 N8          2.5000    7.6320    2.6510 n         1 MOL     -0.790352
     84 O15         2.5760    7.1110    0.5140 o         1 MOL     -0.532723
     85 H33         2.1040    2.2480    1.3490 hn        1 MOL      0.247861
     86 H34         1.5630    4.8230    0.1040 h1        1 MOL      0.135120
     87 H35         4.3430    4.8660    0.3520 hc        1 MOL      0.058725
     88 H36         3.9790    3.4740    1.3130 hc        1 MOL      0.058725
     89 H37         4.1060    5.6170    2.7760 hc        1 MOL     -0.021236
     90 H38         2.5860    4.9110    2.7850 hc        1 MOL     -0.021236
     91 H39         2.6720    7.4080    3.6180 hn        1 MOL      0.361171
     92 H40         2.3050    8.5970    2.4400 hn        1 MOL      0.361171
     93 N9          3.1100    2.7390   -1.7800 n         1 MOL     -0.076590
     94 C30         3.6390    2.4230   -3.1100 c3        1 MOL     -0.340690
     95 C31         5.0560    1.9220   -3.1350 c         1 MOL      0.672186
     96 O16         5.7210    1.8970   -4.1990 o         1 MOL     -0.593084
     97 C32         2.7090    1.4530   -3.8400 c3        1 MOL      0.215114
     98 C33         1.2730    1.9330   -3.9060 c3        1 MOL     -0.252374
     99 C34         2.5770    0.0420   -3.0970 c3        1 MOL     -0.252374
    100 H41         3.0170    1.9790   -1.1240 hn        1 MOL      0.145620
    101 H42         3.6910    3.3510   -3.6890 h1        1 MOL      0.158225
    102 H43         2.9720    1.2510   -4.8770 hc        1 MOL      0.014424
    103 H44         0.7480    1.4050   -4.6960 hc        1 MOL      0.065782
    104 H45         0.8710    1.6990   -2.9170 hc        1 MOL      0.065782
    105 H46         1.2570    3.0100   -4.0390 hc        1 MOL      0.065782
    106 H47         2.3550    0.2040   -2.0400 hc        1 MOL      0.065782
    107 H48         1.7900   -0.4840   -3.6190 hc        1 MOL      0.065782
    108 H49         3.5570   -0.4480   -3.2190 hc        1 MOL      0.065782
    109 N10         5.5550    1.4030   -2.0060 n         1 MOL     -0.369342
    110 C35         6.9630    0.9750   -1.9530 c3        1 MOL      0.040537
    111 C36         7.1800   -0.3620   -1.3380 c         1 MOL      0.837796
    112 O17         8.0920   -1.0990   -1.7110 o         1 MOL     -0.628369
    113 C37         7.7890    2.0420   -1.2060 c3        1 MOL     -0.282389
    114 C38         7.6160    3.4490   -1.6480 c         1 MOL      0.656845
    115 N11         7.7560    3.7600   -2.8870 n         1 MOL     -0.757961
    116 O18         7.1410    4.2930   -0.9580 o         1 MOL     -0.569911
    117 H50         5.0190    1.3020   -1.1620 hn        1 MOL      0.222387
    118 H51         7.3600    0.7480   -2.9420 h1        1 MOL      0.049562
    119 H52         8.8510    1.8550   -1.3510 hc        1 MOL      0.075674
    120 H53         7.4270    2.0590   -0.1850 hc        1 MOL      0.075674
    121 H54         7.9070    3.0740   -3.6180 hn        1 MOL      0.354866
    122 H55         7.8230    4.7340   -3.1500 hn        1 MOL      0.354866
    123 N12         6.3290   -0.7810   -0.4610 n         1 MOL     -0.919753
    124 C39         6.2870   -2.0310    0.3260 c3        1 MOL      0.603262
    125 C40         4.8860   -2.5920    0.3030 c         1 MOL      0.341041
    126 O19         3.8340   -1.9440    0.0760 o         1 MOL     -0.448955
    127 C41         6.8680   -1.7100    1.7610 c3        1 MOL      0.112191
    128 C42         7.9860   -0.7180    1.8670 ca        1 MOL     -0.041657
    129 C43         7.6830    0.6570    2.1490 ca        1 MOL     -0.140027
    130 C44         9.3420   -1.0840    1.5880 ca        1 MOL     -0.140027
    131 C45         8.6700    1.6600    2.0940 ca        1 MOL     -0.261408
    132 C46        10.2910   -0.1050    1.5120 ca        1 MOL     -0.261408
    133 C47         9.9570    1.2550    1.7430 ca        1 MOL      0.389162
    134 O20        10.8930    2.2100    1.8060 oh        1 MOL     -0.532932
    135 H56         5.6670   -0.0820   -0.1720 hn        1 MOL      0.337121
    136 H57         6.9130   -2.8450   -0.0210 h1        1 MOL     -0.050861
    137 H58         7.0990   -2.6540    2.2410 hc        1 MOL     -0.050791
    138 H59         6.0520   -1.2100    2.2880 hc        1 MOL     -0.050791
    139 H60         6.6650    0.9750    2.3110 ha        1 MOL      0.149670
    140 H61         9.6570   -2.1000    1.4410 ha        1 MOL      0.149670
    141 H62         8.4980    2.7030    2.3420 ha        1 MOL      0.138965
    142 H63        11.3350   -0.2620    1.2690 ha        1 MOL      0.138965
    143 H64        10.4840    3.0680    1.9650 ho        1 MOL      0.373034
    144 N13         4.8830   -3.7770    0.8640 n         1 MOL     -0.568731
    145 C48         3.7300   -4.4150    1.4810 c3        1 MOL      0.215463
    146 C49         2.6030   -4.8990    0.4850 c         1 MOL      0.462389
    147 O21         2.1780   -6.0400    0.6060 o         1 MOL     -0.534359
    148 C50         3.0430   -3.5800    2.5560 c3        1 MOL     -0.319938
    149 C51         3.8530   -3.1580    3.7890 c3        1 MOL      0.164588
    150 C52         4.2910   -4.3640    4.6630 c         1 MOL      0.681704
    151 O22         5.5310   -4.4340    4.9020 o         1 MOL     -0.728853
    152 O23         3.4560   -4.9790    5.2920 o         1 MOL     -0.728853
    153 H65         5.8100   -4.1810    0.9780 hn        1 MOL      0.322981
    154 H66         3.9800   -5.3540    1.9710 h1        1 MOL      0.028589
    155 H67         2.2000   -4.1100    3.0020 hc        1 MOL      0.107716
    156 H68         2.6950   -2.7210    1.9760 hc        1 MOL      0.107716
    157 H69         3.3430   -2.4370    4.4320 hc        1 MOL     -0.066560
    158 H70         4.7380   -2.6640    3.4080 hc        1 MOL     -0.066560
    159 N14         2.1760   -4.0960   -0.5150 n         1 MOL     -0.388429
    160 C53         1.0610   -4.4860   -1.4550 c3        1 MOL     -0.146715
    161 C54         1.5990   -5.4670   -2.5480 c         1 MOL      0.455696
    162 O24         0.8060   -5.9970   -3.2880 o         1 MOL     -0.556583
    163 C55         0.4080   -3.2480   -2.1140 c3        1 MOL      0.100061
    164 C56         0.1390   -2.1020   -1.1660 c3        1 MOL      0.525093
    165 C57        -0.9620   -2.3000   -0.0940 c         1 MOL      0.306655
    166 O25        -0.7310   -3.0480    0.8930 o         1 MOL     -0.577550
    167 O26        -2.0230   -1.8040   -0.2880 o         1 MOL     -0.577550
    168 H71         2.5470   -3.1550   -0.5720 hn        1 MOL      0.235746
    169 H72         0.2600   -5.0040   -0.9180 h1        1 MOL      0.168415
    170 H73        -0.4300   -3.5270   -2.7540 hc        1 MOL     -0.035236
    171 H74         1.2530   -2.9810   -2.7520 hc        1 MOL     -0.035236
    172 H75        -0.1460   -1.3420   -1.8980 hc        1 MOL     -0.167376
    173 H76         1.0870   -1.7720   -0.7250 hc        1 MOL     -0.167376
    174 N15         2.8480   -5.8050   -2.6330 n         1 MOL     -0.174305
    175 C58         3.5430   -6.5570   -3.6780 c3        1 MOL     -0.157040
    176 H77         2.8120   -6.9910   -4.3600 h1        1 MOL      0.074392
    177 H78         4.2020   -5.8880   -4.2300 h1        1 MOL      0.074392
    178 H79         4.1320   -7.3540   -3.2220 h1        1 MOL      0.074392
    179 H80         3.5250   -5.3710   -2.0270 hn        1 MOL      0.193757
    180 Ca1        -4.1650   -2.1610    1.2650 Ca        1 MOL      1.782640
    181 O27        -3.1770   -4.6920    1.3680 oh        1 MOL     -0.806599
    182 H81        -3.5440   -5.3900    0.8250 ho        1 MOL      0.394881
    183 H82        -2.2560   -4.9160    1.4530 ho        1 MOL      0.394881
    184 O28        -5.9450   -0.4770    2.4970 oh        1 MOL     -0.806599
    185 H83        -5.7990    0.4450    2.6820 ho        1 MOL      0.394881
    186 H84        -6.8420   -0.5120    2.1530 ho        1 MOL      0.394881
    187 O29        -4.8010   -3.4510    3.6500 oh        1 MOL     -0.806599
    188 H85        -4.6020   -3.2320    4.5600 ho        1 MOL      0.394881
    189 H86        -5.7560   -3.4110    3.5960 ho        1 MOL      0.394881
@<TRIPOS>BOND
     1    1    2 1   
     2    1    4 1   
     3    1    5 1   
     4    1    6 1   
     5    2    3 2   
     6    2    7 1   
     7    7    8 1   
     8    7   15 1   
     9    8    9 1   
    10    8   11 1   
    11    8   16 1   
    12    9   10 2   
    13    9   19 1   
    14   11   12 1   
    15   11   17 1   
    16   11   18 1   
    17   12   13 1   
    18   12   14 1   
    19   19   20 1   
    20   19   27 1   
    21   20   21 1   
    22   20   23 1   
    23   20   28 1   
    24   21   22 2   
    25   21   38 1   
    26   23   24 1   
    27   23   25 1   
    28   23   29 1   
    29   24   26 1   
    30   24   30 1   
    31   24   31 1   
    32   25   32 1   
    33   25   33 1   
    34   25   34 1   
    35   26   35 1   
    36   26   36 1   
    37   26   37 1   
    38   38   39 1   
    39   38   46 1   
    40   39   40 1   
    41   39   42 1   
    42   39   47 1   
    43   40   41 2   
    44   40   50 1   
    45   42   43 1   
    46   42   48 1   
    47   42   49 1   
    48   43   44 1   
    49   43   45 1   
    50   50   51 1   
    51   50   54 1   
    52   51   52 1   
    53   51   55 1   
    54   51   56 1   
    55   52   53 2   
    56   52   57 1   
    57   57   58 1   
    58   57   65 1   
    59   58   59 1   
    60   58   61 1   
    61   58   66 1   
    62   59   60 2   
    63   59   69 1   
    64   61   62 1   
    65   61   67 1   
    66   61   68 1   
    67   62   63 1   
    68   62   64 1   
    69   69   70 1   
    70   69   73 1   
    71   70   71 1   
    72   70   74 1   
    73   70   75 1   
    74   71   72 2   
    75   71   76 1   
    76   76   77 1   
    77   76   85 1   
    78   77   78 1   
    79   77   80 1   
    80   77   86 1   
    81   78   79 2   
    82   78   93 1   
    83   80   81 1   
    84   80   87 1   
    85   80   88 1   
    86   81   82 1   
    87   81   89 1   
    88   81   90 1   
    89   82   83 1   
    90   82   84 2   
    91   83   91 1   
    92   83   92 1   
    93   93   94 1   
    94   93  100 1   
    95   94   95 1   
    96   94   97 1   
    97   94  101 1   
    98   95   96 2   
    99   95  109 1   
   100   97   98 1   
   101   97   99 1   
   102   97  102 1   
   103   98  103 1   
   104   98  104 1   
   105   98  105 1   
   106   99  106 1   
   107   99  107 1   
   108   99  108 1   
   109  109  110 1   
   110  109  117 1   
   111  110  111 1   
   112  110  113 1   
   113  110  118 1   
   114  111  112 2   
   115  111  123 1   
   116  113  114 1   
   117  113  119 1   
   118  113  120 1   
   119  114  115 1   
   120  114  116 2   
   121  115  121 1   
   122  115  122 1   
   123  123  124 1   
   124  123  135 1   
   125  124  125 1   
   126  124  127 1   
   127  124  136 1   
   128  125  126 2   
   129  125  144 1   
   130  127  128 1   
   131  127  137 1   
   132  127  138 1   
   133  128  129 ar  
   134  128  130 ar  
   135  129  131 ar  
   136  129  139 1   
   137  130  132 ar  
   138  130  140 1   
   139  131  133 ar  
   140  131  141 1   
   141  132  133 ar  
   142  132  142 1   
   143  133  134 1   
   144  134  143 1   
   145  144  145 1   
   146  144  153 1   
   147  145  146 1   
   148  145  148 1   
   149  145  154 1   
   150  146  147 2   
   151  146  159 1   
   152  148  149 1   
   153  148  155 1   
   154  148  156 1   
   155  149  150 1   
   156  149  157 1   
   157  149  158 1   
   158  150  151 1   
   159  150  152 1   
   160  159  160 1   
   161  159  168 1   
   162  160  161 1   
   163  160  163 1   
   164  160  169 1   
   165  161  162 2   
   166  161  174 1   
   167  163  164 1   
   168  163  170 1   
   169  163  171 1   
   170  164  165 1   
   171  164  172 1   
   172  164  173 1   
   173  165  166 1   
   174  165  167 1   
   175  174  175 1   
   176  174  179 1   
   177  175  176 1   
   178  175  177 1   
   179  175  178 1   
   180  181  182 1   
   181  181  183 1   
   182  184  185 1   
   183  184  186 1   
   184  187  188 1   
   185  187  189 1   
@<TRIPOS>SUBSTRUCTURE
     1 MOL         1 TEMP              0 ****  ****    0 ROOT
