@<TRIPOS>MOLECULE
MOL
  195   189     1     0     0
SMALL
resp


@<TRIPOS>ATOM
      1 C1          4.1100    5.9460   -2.5040 c3        1 MOL     -0.436792
      2 C2          5.7100    5.8860   -2.2710 c         1 MOL      0.674369
      3 O1          6.2900    6.8180   -1.7200 o         1 MOL     -0.571955
      4 H1          3.7020    4.9360   -2.4760 hc        1 MOL      0.119996
      5 H2          3.6500    6.5450   -1.7170 hc        1 MOL      0.119996
      6 H3          3.9000    6.3960   -3.4730 hc        1 MOL      0.119996
      7 N1          6.4370    4.8140   -2.6170 n         1 MOL     -0.667189
      8 C3          7.7310    4.2520   -2.1630 c3        1 MOL      0.439808
      9 C4          7.6710    3.8160   -0.6970 c         1 MOL      0.559293
     10 O2          6.7030    4.0570    0.0250 o         1 MOL     -0.507425
     11 C5          8.8620    5.3010   -2.4420 c3        1 MOL     -0.380332
     12 C6         10.2400    4.7060   -2.5620 c         1 MOL      0.829846
     13 O3         11.2300    5.3790   -2.3230 o         1 MOL     -0.756860
     14 O4         10.2470    3.4940   -2.7290 o         1 MOL     -0.756860
     15 H4          5.7880    4.0780   -2.8930 hn        1 MOL      0.280087
     16 H5          7.9470    3.3690   -2.7570 h1        1 MOL     -0.014155
     17 H6          8.9130    5.9120   -1.5350 hc        1 MOL      0.085393
     18 H7          8.5730    5.7890   -3.3740 hc        1 MOL      0.085393
     19 N2          8.7630    3.0660   -0.3440 n         1 MOL     -0.558307
     20 C7          9.0690    2.3110    0.9080 c3        1 MOL      0.066265
     21 C8          7.9380    1.3580    1.3650 c         1 MOL      0.416413
     22 O5          8.1590    0.7270    2.4170 o         1 MOL     -0.561588
     23 C9          9.4000    3.2490    2.0580 c3        1 MOL     -0.056964
     24 C10        10.6660    4.1200    1.8170 c3        1 MOL      0.044544
     25 C11        10.9580    5.0290    3.0690 c3        1 MOL     -0.116723
     26 C12        12.3850    5.5540    3.1950 c3        1 MOL      0.118529
     27 N3         12.7330    6.0710    1.8870 n4        1 MOL     -0.303848
     28 H8          9.4470    3.0060   -1.0820 hn        1 MOL      0.299053
     29 H9          9.9360    1.6890    0.7340 h1        1 MOL      0.097374
     30 H10         9.5560    2.6620    2.9650 hc        1 MOL      0.056053
     31 H11         8.5630    3.9340    2.1680 hc        1 MOL      0.056053
     32 H12        10.6320    4.6940    0.8820 hc        1 MOL     -0.004204
     33 H13        11.5060    3.4270    1.7760 hc        1 MOL     -0.004204
     34 H14        10.7280    4.3700    3.9090 hc        1 MOL      0.055968
     35 H15        10.3530    5.9250    3.2040 hc        1 MOL      0.055968
     36 H16        13.1300    4.8260    3.5240 hx        1 MOL      0.051135
     37 H17        12.4390    6.3310    3.9640 hx        1 MOL      0.051135
     38 H18        12.3030    6.9490    1.6450 hn        1 MOL      0.310414
     39 H19        13.7360    6.1990    1.8210 hn        1 MOL      0.310414
     40 H20        12.4920    5.3430    1.2270 hn        1 MOL      0.310414
     41 N4          6.7870    1.2790    0.6740 n         1 MOL     -0.307506
     42 C13         5.8390    0.1310    0.6480 c3        1 MOL      0.296893
     43 C14         5.7430   -0.5840   -0.7150 c         1 MOL      0.376258
     44 O6          5.5050    0.0500   -1.7570 o         1 MOL     -0.530385
     45 C15         4.4410    0.6990    1.1060 c3        1 MOL     -0.125942
     46 C16         3.4410   -0.4140    1.2040 c         1 MOL      0.730452
     47 O7          2.2140   -0.2310    1.0650 o         1 MOL     -0.756309
     48 O8          3.8870   -1.5240    1.5340 o         1 MOL     -0.756309
     49 H21         6.6750    2.0380    0.0230 hn        1 MOL      0.135820
     50 H22         6.0630   -0.5880    1.4240 h1        1 MOL      0.015455
     51 H23         4.2050    1.4880    0.3930 hc        1 MOL      0.037853
     52 H24         4.4350    1.1560    2.0950 hc        1 MOL      0.037853
     53 N5          5.8500   -1.9100   -0.7200 n         1 MOL     -0.259085
     54 C17         6.4710   -2.8560    0.2580 c3        1 MOL     -0.131595
     55 C18         5.7840   -4.2360    0.2010 c         1 MOL      0.619536
     56 O9          5.8230   -4.9280   -0.8130 o         1 MOL     -0.538552
     57 H25         5.6760   -2.3820   -1.5930 hn        1 MOL      0.230276
     58 H26         6.4820   -2.4370    1.2660 h1        1 MOL      0.085061
     59 H27         7.4930   -3.0800   -0.0300 h1        1 MOL      0.085061
     60 N6          5.1150   -4.6360    1.3030 n         1 MOL     -0.586687
     61 C19         4.3190   -5.9460    1.2410 c3        1 MOL      0.173079
     62 C20         2.9990   -5.8380    0.5720 c         1 MOL      0.339415
     63 O10         2.5330   -4.6970    0.5030 o         1 MOL     -0.586537
     64 C21         4.1120   -6.3970    2.7160 c3        1 MOL     -0.276654
     65 C22         3.5300   -5.3790    3.7530 c         1 MOL      0.660475
     66 O11         3.2820   -5.7800    4.9210 o         1 MOL     -0.663243
     67 O12         3.3410   -4.2020    3.4080 o         1 MOL     -0.663243
     68 H28         5.2190   -4.2090    2.2070 hn        1 MOL      0.336143
     69 H29         4.9070   -6.6700    0.6860 h1        1 MOL      0.049453
     70 H30         5.1050   -6.5640    3.1330 hc        1 MOL      0.081674
     71 H31         3.9810   -7.4760    2.7400 hc        1 MOL      0.081674
     72 N7          2.3550   -6.8510    0.0500 n         1 MOL     -0.230392
     73 C23         1.0030   -6.8830   -0.5380 c3        1 MOL     -0.226522
     74 C24         0.6080   -5.8200   -1.5370 c         1 MOL      0.586777
     75 O13        -0.5350   -5.7270   -1.9930 o         1 MOL     -0.556128
     76 H32         2.7760   -7.7460    0.2610 hn        1 MOL      0.259818
     77 H33         0.3270   -6.7910    0.3060 h1        1 MOL      0.129906
     78 H34         0.9150   -7.8620   -1.0100 h1        1 MOL      0.129906
     79 N8          1.5180   -4.9210   -1.9610 n         1 MOL     -0.463645
     80 C25         1.2380   -3.6840   -2.7230 c3        1 MOL      0.125020
     81 C26         0.8270   -2.5190   -1.8290 c         1 MOL      0.276133
     82 O14         0.8870   -2.6200   -0.5640 o         1 MOL     -0.512939
     83 C27         2.4780   -3.2460   -3.6910 c3        1 MOL      0.296946
     84 C28         3.6440   -2.5500   -2.9060 c3        1 MOL     -0.143931
     85 O15         3.0320   -4.4030   -4.3160 oh        1 MOL     -0.603535
     86 H35         2.4430   -4.9930   -1.5660 hn        1 MOL      0.310229
     87 H36         0.5180   -3.9370   -3.4890 h1        1 MOL      0.053016
     88 H37         2.0560   -2.6570   -4.4940 h1        1 MOL     -0.010077
     89 H38         2.3470   -4.7150   -4.9050 ho        1 MOL      0.381903
     90 H39         3.4000   -1.5030   -2.7060 hc        1 MOL      0.061842
     91 H40         3.9540   -3.0780   -2.0090 hc        1 MOL      0.061842
     92 H41         4.4250   -2.4030   -3.6480 hc        1 MOL      0.061842
     93 N9          0.2280   -1.4830   -2.4270 n         1 MOL      0.022097
     94 C29        -0.2960   -0.2530   -1.8090 c3        1 MOL     -0.377850
     95 C30        -1.6480   -0.3600   -1.0610 c         1 MOL      0.441774
     96 O16        -2.0390    0.5800   -0.3600 o         1 MOL     -0.534489
     97 C31        -0.2760    0.9950   -2.7600 c3        1 MOL     -0.011368
     98 C32        -1.1950    0.7230   -3.9290 c3        1 MOL      0.314306
     99 C33         1.1860    1.2220   -3.2250 c3        1 MOL     -0.016771
    100 C34        -1.5320    2.0500   -4.6320 c3        1 MOL     -0.235829
    101 H42        -0.0010   -1.6720   -3.3870 hn        1 MOL      0.138038
    102 H43         0.3350    0.0490   -0.9680 h1        1 MOL      0.232521
    103 H44        -0.6610    1.9240   -2.3500 hc        1 MOL      0.085146
    104 H45        -2.1630    0.3060   -3.6680 hc        1 MOL     -0.067500
    105 H46        -0.7860   -0.0260   -4.6060 hc        1 MOL     -0.067500
    106 H47         1.8910    1.3340   -2.3890 hc        1 MOL     -0.003790
    107 H48         1.5730    0.3340   -3.7250 hc        1 MOL     -0.003790
    108 H49         1.2590    2.0850   -3.8850 hc        1 MOL     -0.003790
    109 H50        -1.9820    2.7820   -3.9590 hc        1 MOL      0.047043
    110 H51        -0.5230    2.3570   -4.8940 hc        1 MOL      0.047043
    111 H52        -2.0110    1.9830   -5.6120 hc        1 MOL      0.047043
    112 N10        -2.3780   -1.4530   -1.1450 n         1 MOL     -0.080582
    113 C35        -3.6360   -1.6230   -0.4190 c3        1 MOL     -0.065827
    114 C36        -4.7930   -2.0360   -1.3990 c         1 MOL      0.430131
    115 O17        -4.5710   -2.6920   -2.4270 o         1 MOL     -0.486856
    116 C37        -3.6110   -2.6730    0.7010 c3        1 MOL      0.519205
    117 C38        -2.9220   -3.9250    0.2970 c3        1 MOL     -0.351412
    118 O18        -2.9090   -2.3120    1.8140 oh        1 MOL     -0.752379
    119 H53        -2.0400   -2.1590   -1.7740 hn        1 MOL      0.123523
    120 H54        -3.8260   -0.7070    0.1320 h1        1 MOL      0.077235
    121 H55        -4.6110   -2.9130    1.0650 h1        1 MOL     -0.044779
    122 H56        -3.4620   -2.4780    2.5750 ho        1 MOL      0.440521
    123 H57        -3.1320   -4.7190    1.0030 hc        1 MOL      0.092538
    124 H58        -3.2610   -4.3290   -0.6590 hc        1 MOL      0.092538
    125 H59        -1.8460   -3.7720    0.2900 hc        1 MOL      0.092538
    126 N11        -5.9330   -1.3890   -1.1410 n         1 MOL     -0.394176
    127 C39        -7.0640   -1.3640   -2.1070 c3        1 MOL     -0.135929
    128 C40        -8.1480   -0.2910   -1.7570 c         1 MOL      0.516226
    129 O19        -8.8460    0.1880   -2.6910 o         1 MOL     -0.528421
    130 C41        -7.8640   -2.6460   -2.1240 c3        1 MOL      0.348488
    131 C42        -8.8760   -2.6570   -3.2990 c3        1 MOL     -0.418534
    132 O20        -8.5020   -2.9690   -0.8850 oh        1 MOL     -0.640540
    133 H60        -6.0710   -0.9720   -0.2300 hn        1 MOL      0.234915
    134 H61        -6.6400   -1.0990   -3.0770 h1        1 MOL      0.180871
    135 H62        -7.1750   -3.4100   -2.4710 h1        1 MOL      0.023064
    136 H63        -8.3300   -3.8640   -0.5810 ho        1 MOL      0.411149
    137 H64        -9.0620   -3.7200   -3.4960 hc        1 MOL      0.113590
    138 H65        -9.8250   -2.2440   -2.9510 hc        1 MOL      0.113590
    139 H66        -8.5170   -2.0610   -4.1400 hc        1 MOL      0.113590
    140 N12        -8.2590    0.2010   -0.5160 n         1 MOL     -0.418180
    141 C43        -9.2280    1.2270   -0.0330 c3        1 MOL      0.019865
    142 C44        -8.6570    2.0190    1.2280 c         1 MOL      0.484540
    143 O21        -7.8190    1.4650    1.9180 o         1 MOL     -0.517633
    144 C45       -10.4960    0.4150    0.3110 c3        1 MOL     -0.411091
    145 C46       -11.7040    1.2480    0.4250 c3        1 MOL      0.567173
    146 C47       -12.9560    0.5800    0.0710 c3        1 MOL     -0.151646
    147 C48       -14.2660    1.1890    0.5910 c3        1 MOL      0.077022
    148 N13       -14.5270    2.3790   -0.1860 n4        1 MOL     -0.251429
    149 H67        -7.7050   -0.2680    0.1860 hn        1 MOL      0.289730
    150 H68        -9.4740    1.8900   -0.8730 h1        1 MOL      0.094010
    151 H69       -10.3510   -0.0930    1.2600 hc        1 MOL      0.122591
    152 H70       -10.7300   -0.1650   -0.5780 hc        1 MOL      0.122591
    153 H71       -11.6380    2.1570   -0.1760 hc        1 MOL     -0.121429
    154 H72       -11.7230    1.5170    1.4790 hc        1 MOL     -0.121429
    155 H73       -12.8680   -0.4390    0.4640 hc        1 MOL      0.020394
    156 H74       -12.9730    0.5130   -1.0150 hc        1 MOL      0.020394
    157 H75       -14.1930    1.5490    1.6210 hx        1 MOL      0.051287
    158 H76       -15.0740    0.4940    0.3920 hx        1 MOL      0.051287
    159 H77       -14.4350    2.2300   -1.1840 hn        1 MOL      0.279478
    160 H78       -15.4620    2.7250   -0.0400 hn        1 MOL      0.279478
    161 H79       -13.8830    3.0970    0.1080 hn        1 MOL      0.279478
    162 N14        -9.0960    3.2340    1.4110 n         1 MOL     -0.225525
    163 C49        -8.8230    4.1630    2.4020 c3        1 MOL      0.020430
    164 C50        -7.3040    4.6550    2.4130 c         1 MOL      0.334170
    165 O22        -6.6170    4.6210    3.4590 o         1 MOL     -0.512111
    166 C51        -9.6850    5.4340    2.5820 c3        1 MOL      0.057305
    167 C52       -11.1700    5.0490    2.6630 c3        1 MOL     -0.335708
    168 C53       -11.8150    4.6380    1.2980 c         1 MOL      0.761933
    169 O23       -11.1980    4.7300    0.2020 o         1 MOL     -0.718911
    170 O24       -12.9650    4.1470    1.3420 o         1 MOL     -0.718911
    171 H80        -9.7080    3.5620    0.6850 hn        1 MOL      0.292686
    172 H81        -8.9930    3.6090    3.3200 h1        1 MOL      0.051468
    173 H82        -9.3980    6.1120    1.7770 hc        1 MOL      0.031093
    174 H83        -9.4130    5.8920    3.5280 hc        1 MOL      0.031093
    175 H84       -11.6870    5.9200    3.0600 hc        1 MOL      0.090765
    176 H85       -11.1900    4.2470    3.4000 hc        1 MOL      0.090765
    177 N15        -6.7830    5.1450    1.2730 n         1 MOL     -0.325261
    178 C54        -7.2500    5.2090   -0.1670 c3        1 MOL     -0.066586
    179 H86        -7.9510    4.3960   -0.3570 h1        1 MOL      0.066009
    180 H87        -7.7450    6.1640   -0.3470 h1        1 MOL      0.066009
    181 H88        -6.3930    5.1120   -0.8320 h1        1 MOL      0.066009
    182 H89        -5.8280    5.4250    1.4300 hn        1 MOL      0.277766
    183 Ca1         1.6640   -2.7270    1.9940 Ca        1 MOL      1.776822
    184 O25        -0.0890   -4.7130    2.0330 oh        1 MOL     -0.852354
    185 H90        -0.9370   -4.7260    2.4830 ho        1 MOL      0.420014
    186 H91         0.3650   -5.4810    2.3730 ho        1 MOL      0.420014
    187 O26        -0.4720   -1.0460    1.8550 oh        1 MOL     -0.852354
    188 H92        -1.3820   -1.2070    1.6250 ho        1 MOL      0.420014
    189 H93        -0.4480   -0.1180    2.1070 ho        1 MOL      0.420014
    190 O27         2.6400   -0.9360    4.0730 oh        1 MOL     -0.852354
    191 H94         2.5820   -0.2740    4.7570 ho        1 MOL      0.420014
    192 H95         3.5710   -1.0110    3.8730 ho        1 MOL      0.420014
    193 O28         0.5910   -3.2350    4.5280 oh        1 MOL     -0.852354
    194 H96        -0.3060   -3.2500    4.8720 ho        1 MOL      0.420014
    195 H97         1.0790   -2.7140    5.1660 ho        1 MOL      0.420014
@<TRIPOS>BOND
     1    1    2 1   
     2    1    4 1   
     3    1    5 1   
     4    1    6 1   
     5    2    3 2   
     6    2    7 1   
     7    7    8 1   
     8    7   15 1   
     9    8    9 1   
    10    8   11 1   
    11    8   16 1   
    12    9   10 2   
    13    9   19 1   
    14   11   12 1   
    15   11   17 1   
    16   11   18 1   
    17   12   13 1   
    18   12   14 1   
    19   19   20 1   
    20   19   28 1   
    21   20   21 1   
    22   20   23 1   
    23   20   29 1   
    24   21   22 2   
    25   21   41 1   
    26   23   24 1   
    27   23   30 1   
    28   23   31 1   
    29   24   25 1   
    30   24   32 1   
    31   24   33 1   
    32   25   26 1   
    33   25   34 1   
    34   25   35 1   
    35   26   27 1   
    36   26   36 1   
    37   26   37 1   
    38   27   38 1   
    39   27   39 1   
    40   27   40 1   
    41   41   42 1   
    42   41   49 1   
    43   42   43 1   
    44   42   45 1   
    45   42   50 1   
    46   43   44 2   
    47   43   53 1   
    48   45   46 1   
    49   45   51 1   
    50   45   52 1   
    51   46   47 1   
    52   46   48 1   
    53   53   54 1   
    54   53   57 1   
    55   54   55 1   
    56   54   58 1   
    57   54   59 1   
    58   55   56 2   
    59   55   60 1   
    60   60   61 1   
    61   60   68 1   
    62   61   62 1   
    63   61   64 1   
    64   61   69 1   
    65   62   63 2   
    66   62   72 1   
    67   64   65 1   
    68   64   70 1   
    69   64   71 1   
    70   65   66 1   
    71   65   67 1   
    72   72   73 1   
    73   72   76 1   
    74   73   74 1   
    75   73   77 1   
    76   73   78 1   
    77   74   75 2   
    78   74   79 1   
    79   79   80 1   
    80   79   86 1   
    81   80   81 1   
    82   80   83 1   
    83   80   87 1   
    84   81   82 2   
    85   81   93 1   
    86   83   84 1   
    87   83   85 1   
    88   83   88 1   
    89   84   90 1   
    90   84   91 1   
    91   84   92 1   
    92   85   89 1   
    93   93   94 1   
    94   93  101 1   
    95   94   95 1   
    96   94   97 1   
    97   94  102 1   
    98   95   96 2   
    99   95  112 1   
   100   97   98 1   
   101   97   99 1   
   102   97  103 1   
   103   98  100 1   
   104   98  104 1   
   105   98  105 1   
   106   99  106 1   
   107   99  107 1   
   108   99  108 1   
   109  100  109 1   
   110  100  110 1   
   111  100  111 1   
   112  112  113 1   
   113  112  119 1   
   114  113  114 1   
   115  113  116 1   
   116  113  120 1   
   117  114  115 2   
   118  114  126 1   
   119  116  117 1   
   120  116  118 1   
   121  116  121 1   
   122  117  123 1   
   123  117  124 1   
   124  117  125 1   
   125  118  122 1   
   126  126  127 1   
   127  126  133 1   
   128  127  128 1   
   129  127  130 1   
   130  127  134 1   
   131  128  129 2   
   132  128  140 1   
   133  130  131 1   
   134  130  132 1   
   135  130  135 1   
   136  131  137 1   
   137  131  138 1   
   138  131  139 1   
   139  132  136 1   
   140  140  141 1   
   141  140  149 1   
   142  141  142 1   
   143  141  144 1   
   144  141  150 1   
   145  142  143 2   
   146  142  162 1   
   147  144  145 1   
   148  144  151 1   
   149  144  152 1   
   150  145  146 1   
   151  145  153 1   
   152  145  154 1   
   153  146  147 1   
   154  146  155 1   
   155  146  156 1   
   156  147  148 1   
   157  147  157 1   
   158  147  158 1   
   159  148  159 1   
   160  148  160 1   
   161  148  161 1   
   162  162  163 1   
   163  162  171 1   
   164  163  164 1   
   165  163  166 1   
   166  163  172 1   
   167  164  165 2   
   168  164  177 1   
   169  166  167 1   
   170  166  173 1   
   171  166  174 1   
   172  167  168 1   
   173  167  175 1   
   174  167  176 1   
   175  168  169 1   
   176  168  170 1   
   177  177  178 1   
   178  177  182 1   
   179  178  179 1   
   180  178  180 1   
   181  178  181 1   
   182  184  185 1   
   183  184  186 1   
   184  187  188 1   
   185  187  189 1   
   186  190  191 1   
   187  190  192 1   
   188  193  194 1   
   189  193  195 1   
@<TRIPOS>SUBSTRUCTURE
     1 MOL         1 TEMP              0 ****  ****    0 ROOT
