@<TRIPOS>MOLECULE
MOL
  192   187     1     0     0
SMALL
resp


@<TRIPOS>ATOM
      1 C1         12.2900    4.8990   -3.4790 c3        1 MOL     -0.315774
      2 C2         12.2570    3.7770   -2.4460 c         1 MOL      0.681296
      3 O1         13.2440    3.0590   -2.3090 o         1 MOL     -0.586360
      4 H1         13.2830    5.3470   -3.4970 hc        1 MOL      0.086201
      5 H2         12.0580    4.4940   -4.4630 hc        1 MOL      0.086201
      6 H3         11.5540    5.6580   -3.2140 hc        1 MOL      0.086201
      7 N1         11.2160    3.5590   -1.6150 n         1 MOL     -0.301189
      8 C3         11.1280    2.4740   -0.6470 c3        1 MOL     -0.417003
      9 C4          9.7780    1.6790   -0.5140 c         1 MOL      0.726933
     10 O2          8.6980    2.2610   -0.3930 o         1 MOL     -0.598221
     11 C5         11.4600    3.1770    0.7190 c3        1 MOL     -0.072538
     12 C6         10.5120    4.2600    1.2250 c         1 MOL      0.691775
     13 O3          9.7800    4.8480    0.3830 o         1 MOL     -0.690932
     14 O4         10.5040    4.5580    2.4550 o         1 MOL     -0.690932
     15 H4         10.4780    4.2430   -1.6630 hn        1 MOL      0.110815
     16 H5         11.9240    1.7560   -0.8490 h1        1 MOL      0.170227
     17 H6         12.3880    3.7210    0.5510 hc        1 MOL      0.079769
     18 H7         11.5500    2.4250    1.5100 hc        1 MOL      0.079769
     19 N2          9.8740    0.3250   -0.5340 n         1 MOL     -0.431975
     20 C7          8.6310   -0.4960   -0.6700 c3        1 MOL     -0.174901
     21 C8          7.8820   -0.4530    0.6750 c         1 MOL      0.614252
     22 O5          8.3020   -0.9880    1.7170 o         1 MOL     -0.558205
     23 C9          8.9090   -1.9650   -1.1790 c3        1 MOL     -0.051865
     24 C10         7.7240   -2.8650   -1.5330 c3        1 MOL     -0.186705
     25 C11         6.8420   -3.3040   -0.3660 c3        1 MOL      0.193230
     26 C12         5.8440   -4.3850   -0.7840 c3        1 MOL      0.063697
     27 N3          5.1060   -4.9040    0.3170 n4        1 MOL     -0.307590
     28 H8         10.7760   -0.1170   -0.5890 hn        1 MOL      0.307543
     29 H9          7.9650   -0.0150   -1.3780 h1        1 MOL      0.086714
     30 H10         9.5710   -2.4900   -0.4780 hc        1 MOL      0.073086
     31 H11         9.4990   -1.9790   -2.1010 hc        1 MOL      0.073086
     32 H12         8.1330   -3.7830   -1.9530 hc        1 MOL      0.056287
     33 H13         7.0850   -2.3400   -2.2430 hc        1 MOL      0.056287
     34 H14         6.2070   -2.4810   -0.0600 hc        1 MOL     -0.006322
     35 H15         7.4740   -3.6870    0.4430 hc        1 MOL     -0.006322
     36 H16         6.3930   -5.1520   -1.3260 hx        1 MOL      0.019043
     37 H17         5.1320   -3.9600   -1.4840 hx        1 MOL      0.019043
     38 H18         4.3320   -4.2770    0.4820 hn        1 MOL      0.292506
     39 H19         4.6540   -5.7620    0.0310 hn        1 MOL      0.292506
     40 H20         5.6830   -5.0000    1.1410 hn        1 MOL      0.292506
     41 N4          6.6910    0.0790    0.5000 n         1 MOL     -0.110707
     42 C13         5.5640   -0.0640    1.4160 c3        1 MOL     -0.151062
     43 C14         4.2450    0.0350    0.5120 c         1 MOL      0.545897
     44 O6          4.2170    0.5390   -0.5620 o         1 MOL     -0.574734
     45 C15         5.5100    1.1070    2.4290 c3        1 MOL     -0.150753
     46 C16         6.0280    2.4410    1.8930 c         1 MOL      0.596284
     47 O7          5.2930    3.1990    1.2370 o         1 MOL     -0.659080
     48 O8          7.2110    2.7790    1.9840 o         1 MOL     -0.659080
     49 H21         6.6120    0.5980   -0.3680 hn        1 MOL      0.156557
     50 H22         5.4030   -1.0010    1.9530 h1        1 MOL      0.080884
     51 H23         6.2390    0.9200    3.2170 hc        1 MOL      0.075321
     52 H24         4.4850    1.1650    2.8050 hc        1 MOL      0.075321
     53 N5          3.0690   -0.4850    0.8740 n         1 MOL     -0.274310
     54 C17         2.6390   -1.1230    2.1090 c3        1 MOL     -0.201128
     55 C18         2.7080   -2.6540    2.0950 c         1 MOL      0.721494
     56 O9          3.2490   -3.2110    1.1460 o         1 MOL     -0.690401
     57 H25         2.4120   -0.4710    0.1140 hn        1 MOL      0.218477
     58 H26         1.5970   -0.8750    2.3180 h1        1 MOL      0.123966
     59 H27         3.2690   -0.7940    2.9360 h1        1 MOL      0.123966
     60 N6          2.2470   -3.3160    3.1920 n         1 MOL     -0.446831
     61 C19         2.5980   -4.7470    3.4460 c3        1 MOL      0.034251
     62 C20         1.9340   -5.7350    2.5200 c         1 MOL      0.474423
     63 O10         2.6890   -6.6050    2.0630 o         1 MOL     -0.563910
     64 C21         2.3420   -5.0840    4.9660 c3        1 MOL     -0.386114
     65 C22         1.3100   -4.1700    5.6730 c         1 MOL      0.847454
     66 O11         1.7180   -3.2910    6.4110 o         1 MOL     -0.725462
     67 O12         0.1330   -4.4070    5.4900 o         1 MOL     -0.725462
     68 H28         1.9030   -2.7100    3.9290 hn        1 MOL      0.261432
     69 H29         3.6680   -4.9120    3.3350 h1        1 MOL      0.088364
     70 H30         3.2450   -4.9220    5.5600 hc        1 MOL      0.096937
     71 H31         2.1230   -6.1490    5.0700 hc        1 MOL      0.096937
     72 N7          0.6470   -5.6330    2.2080 n         1 MOL     -0.236818
     73 C23        -0.1300   -6.4080    1.1900 c3        1 MOL     -0.205761
     74 C24        -0.0210   -5.7740   -0.2430 c         1 MOL      0.476599
     75 O13        -0.4140   -6.4380   -1.1940 o         1 MOL     -0.555691
     76 H32         0.1280   -4.8760    2.6460 hn        1 MOL      0.228924
     77 H33        -1.1580   -6.3290    1.5290 h1        1 MOL      0.143993
     78 H34         0.2860   -7.4030    1.0610 h1        1 MOL      0.143993
     79 N8          0.4980   -4.5810   -0.3900 n         1 MOL     -0.012756
     80 C25         0.5050   -3.8990   -1.7340 c3        1 MOL     -0.474912
     81 C26         0.1840   -2.3800   -1.5720 c         1 MOL      0.438563
     82 O14         0.6260   -1.7610   -0.5590 o         1 MOL     -0.439625
     83 C27         1.9260   -4.0130   -2.3910 c3        1 MOL      0.429081
     84 C28         2.5320   -5.4460   -2.4000 c3        1 MOL     -0.383545
     85 O15         1.7790   -3.6400   -3.6850 oh        1 MOL     -0.593129
     86 H35         0.7570   -4.1120    0.4590 hn        1 MOL      0.105800
     87 H36        -0.1670   -4.2860   -2.5010 h1        1 MOL      0.148302
     88 H37         2.5690   -3.2870   -1.8840 h1        1 MOL      0.078137
     89 H38         1.0700   -4.2080   -3.9790 ho        1 MOL      0.378021
     90 H39         3.3960   -5.5560   -3.0730 hc        1 MOL      0.106027
     91 H40         2.7950   -5.7160   -1.3790 hc        1 MOL      0.106027
     92 H41         1.7410   -6.1430   -2.6890 hc        1 MOL      0.106027
     93 N9         -0.5280   -1.8370   -2.6160 n         1 MOL     -0.129752
     94 C29        -1.0590   -0.4840   -2.4490 c3        1 MOL     -0.170987
     95 C30        -2.4130   -0.4510   -1.7970 c         1 MOL      0.629514
     96 O16        -2.7650    0.5080   -1.1030 o         1 MOL     -0.530522
     97 C31        -0.9590    0.2360   -3.8040 c3        1 MOL      0.103670
     98 C32         0.4930    0.1830   -4.3160 c3        1 MOL      0.109123
     99 C33        -1.4690    1.6790   -3.8530 c3        1 MOL     -0.422706
    100 C34         1.7330    0.7540   -3.5370 c3        1 MOL     -0.099868
    101 H42        -0.8050   -2.4040   -3.4030 hn        1 MOL      0.233244
    102 H43        -0.3710    0.0620   -1.8030 h1        1 MOL      0.099524
    103 H44        -1.5500   -0.3770   -4.4920 hc        1 MOL     -0.008913
    104 H45         0.5080    0.7830   -5.2280 hc        1 MOL     -0.044877
    105 H46         0.7350   -0.8340   -4.6150 hc        1 MOL     -0.044877
    106 H47        -2.5150    1.7980   -3.5880 hc        1 MOL      0.127458
    107 H48        -0.9080    2.2970   -3.1540 hc        1 MOL      0.127458
    108 H49        -1.3080    2.0020   -4.8790 hc        1 MOL      0.127458
    109 H50         1.8690    0.0180   -2.7420 hc        1 MOL      0.031686
    110 H51         2.6560    0.6840   -4.1200 hc        1 MOL      0.031686
    111 H52         1.5200    1.7410   -3.1320 hc        1 MOL      0.031686
    112 N10        -3.2880   -1.4020   -2.0550 n         1 MOL     -0.434754
    113 C35        -4.4740   -1.6350   -1.1680 c3        1 MOL     -0.081394
    114 C36        -5.7530   -1.8880   -1.9570 c         1 MOL      0.657973
    115 O17        -5.7370   -2.4680   -3.0190 o         1 MOL     -0.527228
    116 C37        -4.2360   -2.7450   -0.1090 c3        1 MOL      0.375119
    117 C38        -3.5830   -4.0820   -0.5570 c3        1 MOL     -0.249741
    118 O18        -3.5120   -2.1950    1.0580 oh        1 MOL     -0.640107
    119 H53        -3.0540   -2.1200   -2.7230 hn        1 MOL      0.253637
    120 H54        -4.7100   -0.7540   -0.5800 h1        1 MOL      0.123387
    121 H55        -5.2070   -3.0700    0.2530 h1        1 MOL     -0.041883
    122 H56        -3.7690   -2.6520    1.8620 ho        1 MOL      0.413050
    123 H57        -4.1590   -4.8900   -0.1010 hc        1 MOL      0.064912
    124 H58        -3.6230   -3.9920   -1.6400 hc        1 MOL      0.064912
    125 H59        -2.5610   -4.0480   -0.1910 hc        1 MOL      0.064912
    126 N11        -6.9000   -1.3740   -1.4120 n         1 MOL     -0.639369
    127 C39        -8.1940   -1.6130   -2.1060 c3        1 MOL     -0.000882
    128 C40        -9.1880   -0.4610   -2.0860 c         1 MOL      0.669743
    129 O19        -9.8410   -0.1770   -3.0580 o         1 MOL     -0.590436
    130 C41        -8.7100   -2.9330   -1.5260 c3        1 MOL      0.373356
    131 C42       -10.0390   -3.2500   -2.1960 c3        1 MOL     -0.424081
    132 O20        -8.9250   -2.8630   -0.1190 oh        1 MOL     -0.633825
    133 H60        -6.9640   -0.8530   -0.5560 hn        1 MOL      0.322505
    134 H61        -8.0050   -1.7850   -3.1670 h1        1 MOL      0.092406
    135 H62        -8.0550   -3.7460   -1.8200 h1        1 MOL      0.017438
    136 H63        -8.2180   -3.2770    0.3690 ho        1 MOL      0.397314
    137 H64        -9.8620   -3.1940   -3.2730 hc        1 MOL      0.107604
    138 H65       -10.3220   -4.2240   -1.8000 hc        1 MOL      0.107604
    139 H66       -10.7940   -2.4840   -2.0040 hc        1 MOL      0.107604
    140 N12        -9.1980    0.2200   -1.0050 n         1 MOL     -0.406031
    141 C43        -9.9970    1.4120   -0.7400 c3        1 MOL     -0.064793
    142 C44        -9.4520    2.1870    0.4280 c         1 MOL      0.530715
    143 O21        -8.9240    1.5810    1.3550 o         1 MOL     -0.526494
    144 C45       -11.4030    0.8880   -0.3920 c3        1 MOL     -0.008167
    145 C46       -12.4100    2.0450   -0.3000 c3        1 MOL     -0.140409
    146 C47       -13.8430    1.5270   -0.1340 c3        1 MOL      0.224341
    147 C48       -14.0050    0.4550    0.9480 c3        1 MOL      0.075557
    148 N13       -15.3760   -0.0620    1.0340 n4        1 MOL     -0.518894
    149 H67        -8.5970   -0.0710   -0.2500 hn        1 MOL      0.232140
    150 H68       -10.0420    2.0460   -1.6250 h1        1 MOL      0.087116
    151 H69       -11.4410    0.4100    0.5840 hc        1 MOL      0.019846
    152 H70       -11.7170    0.1380   -1.1140 hc        1 MOL      0.019846
    153 H71       -12.5190    2.7030   -1.1600 hc        1 MOL      0.037270
    154 H72       -12.0900    2.6720    0.5310 hc        1 MOL      0.037270
    155 H73       -14.2650    1.0930   -1.0500 hc        1 MOL     -0.031889
    156 H74       -14.4670    2.3690    0.1670 hc        1 MOL     -0.031889
    157 H75       -13.7570    0.9500    1.8840 hx        1 MOL      0.080639
    158 H76       -13.3790   -0.4210    0.7540 hx        1 MOL      0.080639
    159 H77       -15.9890    0.5280    1.5800 hn        1 MOL      0.348629
    160 H78       -15.7250   -0.2250    0.1000 hn        1 MOL      0.348629
    161 H79       -15.2520   -0.9330    1.5270 hn        1 MOL      0.348629
    162 N14        -9.4960    3.5270    0.4660 n         1 MOL     -0.157602
    163 C49        -8.8460    4.3810    1.3850 c3        1 MOL      0.104988
    164 C50        -7.3230    4.3240    1.4340 c         1 MOL      0.351950
    165 O22        -6.7430    4.1540    2.4880 o         1 MOL     -0.504985
    166 C51        -9.2850    5.8290    1.2060 c3        1 MOL     -0.123722
    167 C52       -10.7250    6.1370    1.0240 c3        1 MOL     -0.133851
    168 C53       -11.4910    5.7160    2.2670 c         1 MOL      0.634573
    169 O23       -10.9730    5.8070    3.4330 o         1 MOL     -0.666265
    170 O24       -12.4840    5.0130    2.1170 o         1 MOL     -0.666265
    171 H80        -9.9150    3.9330   -0.3670 hn        1 MOL      0.181864
    172 H81        -9.1600    4.0110    2.3590 h1        1 MOL      0.085181
    173 H82        -8.7960    6.2710    0.3300 hc        1 MOL      0.073534
    174 H83        -8.9340    6.4050    2.0670 hc        1 MOL      0.073534
    175 H84       -11.1270    5.6750    0.1230 hc        1 MOL      0.002047
    176 H85       -10.8090    7.1950    0.7920 hc        1 MOL      0.002047
    177 N15        -6.5840    4.4640    0.3500 n         1 MOL     -0.360038
    178 C54        -6.8830    4.8070   -1.0850 c3        1 MOL     -0.025737
    179 H86        -7.4720    4.0070   -1.5340 h1        1 MOL      0.038763
    180 H87        -7.4470    5.7390   -1.1260 h1        1 MOL      0.038763
    181 H88        -5.9490    4.9220   -1.6350 h1        1 MOL      0.038763
    182 H89        -5.6040    4.2740    0.5280 hn        1 MOL      0.290607
    183 Ca1         7.2590    4.5820    0.0550 Ca        1 MOL      1.803301
    184 O25         5.9330    2.9620   -1.6550 oh        1 MOL     -0.969858
    185 H90         6.4020    2.7360   -2.4580 ho        1 MOL      0.467886
    186 H91         5.0680    2.5650   -1.7540 ho        1 MOL      0.467886
    187 O26         7.4800    6.3300    1.9910 oh        1 MOL     -0.969858
    188 H92         8.2370    6.4740    2.5490 ho        1 MOL      0.467886
    189 H93         6.7690    6.8040    2.4120 ho        1 MOL      0.467886
    190 O27         4.7000    5.7710    0.1960 oh        1 MOL     -0.969858
    191 H94         4.0000    5.2090   -0.1580 ho        1 MOL      0.467886
    192 H95         4.2720    6.6080    0.3650 ho        1 MOL      0.467886
@<TRIPOS>BOND
     1    1    2 1   
     2    1    4 1   
     3    1    5 1   
     4    1    6 1   
     5    2    3 2   
     6    2    7 1   
     7    7    8 1   
     8    7   15 1   
     9    8    9 1   
    10    8   11 1   
    11    8   16 1   
    12    9   10 2   
    13    9   19 1   
    14   11   12 1   
    15   11   17 1   
    16   11   18 1   
    17   12   13 1   
    18   12   14 1   
    19   19   20 1   
    20   19   28 1   
    21   20   21 1   
    22   20   23 1   
    23   20   29 1   
    24   21   22 2   
    25   21   41 1   
    26   23   24 1   
    27   23   30 1   
    28   23   31 1   
    29   24   25 1   
    30   24   32 1   
    31   24   33 1   
    32   25   26 1   
    33   25   34 1   
    34   25   35 1   
    35   26   27 1   
    36   26   36 1   
    37   26   37 1   
    38   27   38 1   
    39   27   39 1   
    40   27   40 1   
    41   41   42 1   
    42   41   49 1   
    43   42   43 1   
    44   42   45 1   
    45   42   50 1   
    46   43   44 2   
    47   43   53 1   
    48   45   46 1   
    49   45   51 1   
    50   45   52 1   
    51   46   47 1   
    52   46   48 1   
    53   53   54 1   
    54   53   57 1   
    55   54   55 1   
    56   54   58 1   
    57   54   59 1   
    58   55   56 2   
    59   55   60 1   
    60   60   61 1   
    61   60   68 1   
    62   61   62 1   
    63   61   64 1   
    64   61   69 1   
    65   62   63 2   
    66   62   72 1   
    67   64   65 1   
    68   64   70 1   
    69   64   71 1   
    70   65   66 1   
    71   65   67 1   
    72   72   73 1   
    73   72   76 1   
    74   73   74 1   
    75   73   77 1   
    76   73   78 1   
    77   74   75 2   
    78   74   79 1   
    79   79   80 1   
    80   79   86 1   
    81   80   81 1   
    82   80   83 1   
    83   80   87 1   
    84   81   82 2   
    85   81   93 1   
    86   83   84 1   
    87   83   85 1   
    88   83   88 1   
    89   84   90 1   
    90   84   91 1   
    91   84   92 1   
    92   85   89 1   
    93   93   94 1   
    94   93  101 1   
    95   94   95 1   
    96   94   97 1   
    97   94  102 1   
    98   95   96 2   
    99   95  112 1   
   100   97   98 1   
   101   97   99 1   
   102   97  103 1   
   103   98  100 1   
   104   98  104 1   
   105   98  105 1   
   106   99  106 1   
   107   99  107 1   
   108   99  108 1   
   109  100  109 1   
   110  100  110 1   
   111  100  111 1   
   112  112  113 1   
   113  112  119 1   
   114  113  114 1   
   115  113  116 1   
   116  113  120 1   
   117  114  115 2   
   118  114  126 1   
   119  116  117 1   
   120  116  118 1   
   121  116  121 1   
   122  117  123 1   
   123  117  124 1   
   124  117  125 1   
   125  118  122 1   
   126  126  127 1   
   127  126  133 1   
   128  127  128 1   
   129  127  130 1   
   130  127  134 1   
   131  128  129 2   
   132  128  140 1   
   133  130  131 1   
   134  130  132 1   
   135  130  135 1   
   136  131  137 1   
   137  131  138 1   
   138  131  139 1   
   139  132  136 1   
   140  140  141 1   
   141  140  149 1   
   142  141  142 1   
   143  141  144 1   
   144  141  150 1   
   145  142  143 2   
   146  142  162 1   
   147  144  145 1   
   148  144  151 1   
   149  144  152 1   
   150  145  146 1   
   151  145  153 1   
   152  145  154 1   
   153  146  147 1   
   154  146  155 1   
   155  146  156 1   
   156  147  148 1   
   157  147  157 1   
   158  147  158 1   
   159  148  159 1   
   160  148  160 1   
   161  148  161 1   
   162  162  163 1   
   163  162  171 1   
   164  163  164 1   
   165  163  166 1   
   166  163  172 1   
   167  164  165 2   
   168  164  177 1   
   169  166  167 1   
   170  166  173 1   
   171  166  174 1   
   172  167  168 1   
   173  167  175 1   
   174  167  176 1   
   175  168  169 1   
   176  168  170 1   
   177  177  178 1   
   178  177  182 1   
   179  178  179 1   
   180  178  180 1   
   181  178  181 1   
   182  184  185 1   
   183  184  186 1   
   184  187  188 1   
   185  187  189 1   
   186  190  191 1   
   187  190  192 1   
@<TRIPOS>SUBSTRUCTURE
     1 MOL         1 TEMP              0 ****  ****    0 ROOT
