@<TRIPOS>MOLECULE
MOL
  186   183     1     0     0
SMALL
resp


@<TRIPOS>ATOM
      1 C1        -12.7980    3.7000    4.1190 c3        1 MOL     -0.357552
      2 C2        -12.2900    2.8470    3.0110 c         1 MOL      0.667576
      3 O1        -12.2200    1.6150    2.9770 o         1 MOL     -0.549912
      4 H1        -11.9910    4.3320    4.4900 hc        1 MOL      0.100085
      5 H2        -13.6110    4.3280    3.7520 hc        1 MOL      0.100085
      6 H3        -13.1640    3.0660    4.9270 hc        1 MOL      0.100085
      7 N1        -12.1260    3.4890    1.8220 n         1 MOL     -0.585007
      8 C3        -11.6910    2.8580    0.5380 c3        1 MOL     -0.173453
      9 C4        -10.4520    1.9550    0.6440 c         1 MOL      0.359344
     10 O2         -9.4440    2.3590    1.1950 o         1 MOL     -0.464447
     11 C5        -11.4960    4.0700   -0.3880 c3        1 MOL     -0.472695
     12 C6        -10.8100    5.3670    0.1750 c         1 MOL      0.874804
     13 O3         -9.5740    5.4620   -0.1770 o         1 MOL     -0.770784
     14 O4        -11.3880    6.2840    0.8170 o         1 MOL     -0.770784
     15 H4        -12.3600    4.4770    1.8460 hn        1 MOL      0.417456
     16 H5        -12.4940    2.1950    0.1870 h1        1 MOL      0.169332
     17 H6        -12.4970    4.3720   -0.7140 hc        1 MOL      0.170083
     18 H7        -10.9500    3.7690   -1.2790 hc        1 MOL      0.170083
     19 N2        -10.6130    0.7080    0.1900 n         1 MOL     -0.123742
     20 C7         -9.7970   -0.4160    0.6990 c3        1 MOL     -0.230190
     21 C8         -8.3460   -0.2650    0.5190 c         1 MOL      0.665201
     22 O5         -7.5460   -0.8040    1.2510 o         1 MOL     -0.520987
     23 C9        -10.2710   -1.7450    0.2580 c3        1 MOL     -0.208076
     24 C10       -10.1630   -1.9320   -1.2390 c3        1 MOL      0.267949
     25 C11       -10.4770   -3.3870   -1.7100 c3        1 MOL     -0.411130
     26 C12       -10.4090   -3.4090   -3.2710 c3        1 MOL      0.229985
     27 N3         -9.8580   -4.6340   -3.8290 n4        1 MOL     -0.399317
     28 H8        -11.4670    0.4220   -0.2860 hn        1 MOL      0.219475
     29 H9         -9.9240   -0.4470    1.7820 h1        1 MOL      0.144339
     30 H10       -11.3230   -1.7680    0.5650 hc        1 MOL      0.096094
     31 H11        -9.8210   -2.5160    0.8870 hc        1 MOL      0.096094
     32 H12        -9.1930   -1.6850   -1.6570 hc        1 MOL     -0.045798
     33 H13       -10.7980   -1.1540   -1.6590 hc        1 MOL     -0.045798
     34 H14       -11.4140   -3.7840   -1.3270 hc        1 MOL      0.122660
     35 H15        -9.6530   -4.0430   -1.4410 hc        1 MOL      0.122660
     36 H16        -9.8960   -2.5200   -3.6260 hx        1 MOL      0.026654
     37 H17       -11.4210   -3.2530   -3.6440 hx        1 MOL      0.026654
     38 H18       -10.0060   -4.7110   -4.8270 hn        1 MOL      0.314754
     39 H19        -8.8990   -4.6780   -3.4800 hn        1 MOL      0.314754
     40 H20       -10.2610   -5.4870   -3.4770 hn        1 MOL      0.314754
     41 N4         -7.8850    0.5370   -0.4980 n         1 MOL     -0.367954
     42 C13        -6.4530    0.6940   -0.8020 c3        1 MOL     -0.212866
     43 C14        -5.6820    1.6230    0.1660 c         1 MOL      0.362217
     44 O6         -6.2500    2.3210    0.9680 o         1 MOL     -0.474291
     45 C15        -6.2600    1.2090   -2.2250 c3        1 MOL      0.003872
     46 C16        -7.0150    2.5140   -2.4150 c         1 MOL      0.481473
     47 O7         -7.4830    2.6410   -3.5630 o         1 MOL     -0.637133
     48 O8         -7.2890    3.3210   -1.4800 o         1 MOL     -0.637133
     49 H21        -8.5550    1.0030   -1.0820 hn        1 MOL      0.313999
     50 H22        -6.0650   -0.3280   -0.7910 h1        1 MOL      0.280423
     51 H23        -6.5070    0.4490   -2.9710 hc        1 MOL      0.046975
     52 H24        -5.1940    1.2730   -2.4220 hc        1 MOL      0.046975
     53 N5         -4.3280    1.6860    0.1690 n         1 MOL     -0.530781
     54 C17        -3.3440    0.7980   -0.5040 c3        1 MOL      0.113267
     55 C18        -3.6250   -0.6980   -0.3640 c         1 MOL      0.721303
     56 O9         -3.8990   -1.1290    0.7590 o         1 MOL     -0.513499
     57 H25        -3.8680    2.3280    0.7920 hn        1 MOL      0.307891
     58 H26        -2.3560    0.8210   -0.0400 h1        1 MOL      0.016586
     59 H27        -3.2180    0.9550   -1.5740 h1        1 MOL      0.016586
     60 N6         -3.6240   -1.5210   -1.4290 n         1 MOL     -0.788550
     61 C19        -4.1340   -2.8650   -1.4950 c3        1 MOL      0.317477
     62 C20        -3.2440   -3.9520   -2.0180 c         1 MOL      0.499228
     63 O10        -2.3930   -3.7440   -2.8970 o         1 MOL     -0.535535
     64 C21        -5.3890   -2.7990   -2.4470 c3        1 MOL     -0.248409
     65 C22        -6.4670   -3.8440   -2.0420 c         1 MOL      0.667244
     66 O11        -6.3370   -4.6470   -1.0890 o         1 MOL     -0.680041
     67 O12        -7.4190   -3.9180   -2.8570 o         1 MOL     -0.680041
     68 H28        -3.2920   -1.2240   -2.3290 hn        1 MOL      0.352825
     69 H29        -4.4200   -3.1070   -0.4730 h1        1 MOL     -0.016327
     70 H30        -5.0630   -3.0490   -3.4510 hc        1 MOL      0.055056
     71 H31        -5.8120   -1.7950   -2.4070 hc        1 MOL      0.055056
     72 N7         -3.2980   -5.1010   -1.3020 n         1 MOL     -0.330226
     73 C23        -2.2970   -6.1790   -1.4200 c3        1 MOL     -0.284648
     74 C24        -0.9990   -6.0450   -0.4590 c         1 MOL      0.559700
     75 O13        -0.3250   -7.0420   -0.0990 o         1 MOL     -0.543118
     76 H32        -4.0070   -5.1360   -0.5800 hn        1 MOL      0.327741
     77 H33        -1.9030   -6.1710   -2.4390 h1        1 MOL      0.146608
     78 H34        -2.7450   -7.1490   -1.1790 h1        1 MOL      0.146608
     79 N8         -0.7170   -4.7990    0.0960 n         1 MOL     -0.367223
     80 C25         0.3530   -4.4580    0.9980 c3        1 MOL     -0.021298
     81 C26         1.0910   -3.2470    0.5640 c         1 MOL      0.554619
     82 O14         0.3580   -2.3400    0.1030 o         1 MOL     -0.515746
     83 C27        -0.2130   -4.3400    2.4630 c3        1 MOL      0.231294
     84 C28        -1.4460   -3.3440    2.5970 c3        1 MOL     -0.197797
     85 O15        -0.7060   -5.6420    2.7460 oh        1 MOL     -0.551857
     86 H35        -1.4020   -4.0770   -0.0940 hn        1 MOL      0.267848
     87 H36         1.1030   -5.2500    0.8890 h1        1 MOL      0.065738
     88 H37         0.6250   -4.0510    3.1040 h1        1 MOL     -0.009568
     89 H38        -0.0880   -6.1210    3.2920 ho        1 MOL      0.375531
     90 H39        -1.7140   -3.2430    3.6480 hc        1 MOL      0.063258
     91 H40        -1.1600   -2.3980    2.1290 hc        1 MOL      0.063258
     92 H41        -2.2700   -3.7540    2.0170 hc        1 MOL      0.063258
     93 N9          2.4360   -3.1660    0.7720 n         1 MOL     -0.501718
     94 C29         3.1630   -1.9310    0.6370 c3        1 MOL     -0.029643
     95 C30         4.4370   -2.2170   -0.0760 c         1 MOL      0.763008
     96 O16         4.6840   -1.7070   -1.1530 o         1 MOL     -0.563817
     97 C31         3.3000   -1.1470    2.0010 c3        1 MOL     -0.016051
     98 C32         1.9490   -0.7640    2.6480 c3        1 MOL      0.169778
     99 C33         4.2440    0.0410    1.9070 c3        1 MOL     -0.176580
    100 C34         1.8650    0.1910    3.8180 c3        1 MOL     -0.359891
    101 H42         2.8490   -3.9320    1.2750 hn        1 MOL      0.274051
    102 H43         2.5480   -1.2780    0.0110 h1        1 MOL      0.084647
    103 H44         3.7060   -1.7960    2.7900 hc        1 MOL     -0.002835
    104 H45         1.3960   -1.6650    2.9100 hc        1 MOL      0.011342
    105 H46         1.4080   -0.2950    1.8210 hc        1 MOL      0.011342
    106 H47         3.8260    0.8710    1.3340 hc        1 MOL      0.054238
    107 H48         4.4930    0.4550    2.8780 hc        1 MOL      0.054238
    108 H49         5.1770   -0.1560    1.3760 hc        1 MOL      0.054238
    109 H50         2.6640   -0.1150    4.4880 hc        1 MOL      0.089589
    110 H51         2.0280    1.2210    3.5090 hc        1 MOL      0.089589
    111 H52         0.8470    0.0620    4.2060 hc        1 MOL      0.089589
    112 N10         5.3400   -2.9580    0.5060 n         1 MOL     -0.613446
    113 C35         6.6980   -3.2450    0.0480 c3        1 MOL      0.006692
    114 C36         7.7180   -3.1260    1.1820 c         1 MOL      0.581802
    115 O17         7.5940   -3.8280    2.2140 o         1 MOL     -0.545543
    116 C37         6.7920   -4.6330   -0.6280 c3        1 MOL      0.253660
    117 C38         5.9930   -4.5530   -1.9480 c3        1 MOL     -0.281625
    118 O18         8.1150   -4.8400   -0.9760 oh        1 MOL     -0.622669
    119 H53         5.1050   -3.6370    1.2180 hn        1 MOL      0.300933
    120 H54         7.0000   -2.4280   -0.5970 h1        1 MOL      0.111119
    121 H55         6.4840   -5.4200    0.0570 h1        1 MOL      0.040629
    122 H56         8.2020   -5.7330   -1.2910 ho        1 MOL      0.409777
    123 H57         4.9360   -4.4990   -1.6790 hc        1 MOL      0.082775
    124 H58         6.2860   -3.7640   -2.6490 hc        1 MOL      0.082775
    125 H59         6.1240   -5.4720   -2.5070 hc        1 MOL      0.082775
    126 N11         8.7580   -2.3010    0.9540 n         1 MOL     -0.519948
    127 C39         9.8410   -2.0170    1.9050 c3        1 MOL      0.105038
    128 C40        10.0670   -0.4780    1.9960 c         1 MOL      0.516260
    129 O19        10.2410    0.1010    3.0430 o         1 MOL     -0.521374
    130 C41        11.0970   -2.8220    1.6760 c3        1 MOL      0.264742
    131 C42        12.1550   -2.5820    2.7900 c3        1 MOL     -0.398281
    132 O20        11.5770   -2.5850    0.3660 oh        1 MOL     -0.611652
    133 H60         8.7990   -1.9000    0.0210 hn        1 MOL      0.336130
    134 H61         9.6650   -2.2630    2.9400 h1        1 MOL      0.066127
    135 H62        10.7620   -3.8560    1.7330 h1        1 MOL      0.064748
    136 H63        12.5310   -2.4450    0.3830 ho        1 MOL      0.379484
    137 H64        13.1630   -2.8900    2.5240 hc        1 MOL      0.108104
    138 H65        12.3250   -1.5650    3.1570 hc        1 MOL      0.108104
    139 H66        11.9370   -3.1470    3.7030 hc        1 MOL      0.108104
    140 N12        10.1180    0.1270    0.7880 n         1 MOL     -0.456710
    141 C43        10.7220    1.4280    0.5040 c3        1 MOL      0.062573
    142 C44         9.9510    2.1420   -0.6000 c         1 MOL      0.594553
    143 O21         9.6070    1.5000   -1.5770 o         1 MOL     -0.527225
    144 C45        12.2110    1.2520    0.1240 c3        1 MOL      0.025946
    145 C46        13.0250    2.6060    0.0050 c3        1 MOL     -0.080659
    146 C47        14.5040    2.3170   -0.1340 c3        1 MOL      0.031377
    147 C48        14.8250    1.5010   -1.3330 c3        1 MOL      0.031719
    148 N13        16.2230    0.9900   -1.4030 n4        1 MOL     -0.264990
    149 H67         9.7940   -0.3960   -0.0160 hn        1 MOL      0.247893
    150 H68        10.6570    2.0320    1.4100 h1        1 MOL      0.072981
    151 H69        12.3270    0.6630   -0.7800 hc        1 MOL     -0.001206
    152 H70        12.7040    0.6590    0.9040 hc        1 MOL     -0.001206
    153 H71        12.8900    3.0070    1.0140 hc        1 MOL      0.037453
    154 H72        12.5230    3.2760   -0.6910 hc        1 MOL      0.037453
    155 H73        14.9670    1.9330    0.7760 hc        1 MOL      0.025759
    156 H74        14.9420    3.3100   -0.2580 hc        1 MOL      0.025759
    157 H75        14.5960    2.0310   -2.2480 hx        1 MOL      0.077390
    158 H76        14.1230    0.6620   -1.2890 hx        1 MOL      0.077390
    159 H77        16.4430    0.6760   -2.3360 hn        1 MOL      0.233236
    160 H78        16.9070    1.7120   -1.2370 hn        1 MOL      0.233236
    161 H79        16.3680    0.1610   -0.8350 hn        1 MOL      0.233236
    162 N14         9.7030    3.4400   -0.4190 n         1 MOL     -0.642633
    163 C49         8.8050    4.1910   -1.2720 c3        1 MOL      0.570595
    164 C50         7.3100    4.0310   -0.9190 c         1 MOL      0.289897
    165 O22         6.6600    3.4190   -1.7490 o         1 MOL     -0.528150
    166 C51         9.3060    5.6230   -1.2950 c3        1 MOL     -0.274875
    167 C52         8.4570    6.4100   -2.3100 c3        1 MOL     -0.212035
    168 C53         8.8330    7.9240   -2.5580 c         1 MOL      0.760095
    169 O23         8.3210    8.7210   -1.8130 o         1 MOL     -0.649567
    170 O24         9.3680    8.3250   -3.5740 o         1 MOL     -0.649567
    171 H80        10.1490    3.9080    0.3620 hn        1 MOL      0.285485
    172 H81         8.8420    3.8540   -2.3120 h1        1 MOL     -0.008132
    173 H82        10.3610    5.6340   -1.5750 hc        1 MOL      0.050115
    174 H83         9.3880    6.0430   -0.2930 hc        1 MOL      0.050115
    175 H84         7.4220    6.3740   -1.9960 hc        1 MOL      0.059577
    176 H85         8.6280    5.8910   -3.2470 hc        1 MOL      0.059577
    177 N15         6.7280    4.4710    0.1560 n         1 MOL     -0.273890
    178 C54         7.2240    5.1810    1.3360 c3        1 MOL     -0.066329
    179 H86         8.3110    5.1010    1.3780 h1        1 MOL      0.062475
    180 H87         6.9390    6.2320    1.2750 h1        1 MOL      0.062475
    181 H88         6.7930    4.7400    2.2350 h1        1 MOL      0.062475
    182 H89         5.7740    4.1350    0.2010 hn        1 MOL      0.275732
    183 Ca1        -7.3320    4.8580    0.7510 Ca        1 MOL      1.696999
    184 O25        -8.3830    3.8720    3.0950 oh        1 MOL     -0.949215
    185 H90        -9.1900    3.4290    2.8440 ho        1 MOL      0.460652
    186 H91        -8.3820    3.8480    4.0440 ho        1 MOL      0.460652
@<TRIPOS>BOND
     1    1    2 1   
     2    1    4 1   
     3    1    5 1   
     4    1    6 1   
     5    2    3 2   
     6    2    7 1   
     7    7    8 1   
     8    7   15 1   
     9    8    9 1   
    10    8   11 1   
    11    8   16 1   
    12    9   10 2   
    13    9   19 1   
    14   11   12 1   
    15   11   17 1   
    16   11   18 1   
    17   12   13 1   
    18   12   14 1   
    19   19   20 1   
    20   19   28 1   
    21   20   21 1   
    22   20   23 1   
    23   20   29 1   
    24   21   22 2   
    25   21   41 1   
    26   23   24 1   
    27   23   30 1   
    28   23   31 1   
    29   24   25 1   
    30   24   32 1   
    31   24   33 1   
    32   25   26 1   
    33   25   34 1   
    34   25   35 1   
    35   26   27 1   
    36   26   36 1   
    37   26   37 1   
    38   27   38 1   
    39   27   39 1   
    40   27   40 1   
    41   41   42 1   
    42   41   49 1   
    43   42   43 1   
    44   42   45 1   
    45   42   50 1   
    46   43   44 2   
    47   43   53 1   
    48   45   46 1   
    49   45   51 1   
    50   45   52 1   
    51   46   47 1   
    52   46   48 1   
    53   53   54 1   
    54   53   57 1   
    55   54   55 1   
    56   54   58 1   
    57   54   59 1   
    58   55   56 2   
    59   55   60 1   
    60   60   61 1   
    61   60   68 1   
    62   61   62 1   
    63   61   64 1   
    64   61   69 1   
    65   62   63 2   
    66   62   72 1   
    67   64   65 1   
    68   64   70 1   
    69   64   71 1   
    70   65   66 1   
    71   65   67 1   
    72   72   73 1   
    73   72   76 1   
    74   73   74 1   
    75   73   77 1   
    76   73   78 1   
    77   74   75 2   
    78   74   79 1   
    79   79   80 1   
    80   79   86 1   
    81   80   81 1   
    82   80   83 1   
    83   80   87 1   
    84   81   82 2   
    85   81   93 1   
    86   83   84 1   
    87   83   85 1   
    88   83   88 1   
    89   84   90 1   
    90   84   91 1   
    91   84   92 1   
    92   85   89 1   
    93   93   94 1   
    94   93  101 1   
    95   94   95 1   
    96   94   97 1   
    97   94  102 1   
    98   95   96 2   
    99   95  112 1   
   100   97   98 1   
   101   97   99 1   
   102   97  103 1   
   103   98  100 1   
   104   98  104 1   
   105   98  105 1   
   106   99  106 1   
   107   99  107 1   
   108   99  108 1   
   109  100  109 1   
   110  100  110 1   
   111  100  111 1   
   112  112  113 1   
   113  112  119 1   
   114  113  114 1   
   115  113  116 1   
   116  113  120 1   
   117  114  115 2   
   118  114  126 1   
   119  116  117 1   
   120  116  118 1   
   121  116  121 1   
   122  117  123 1   
   123  117  124 1   
   124  117  125 1   
   125  118  122 1   
   126  126  127 1   
   127  126  133 1   
   128  127  128 1   
   129  127  130 1   
   130  127  134 1   
   131  128  129 2   
   132  128  140 1   
   133  130  131 1   
   134  130  132 1   
   135  130  135 1   
   136  131  137 1   
   137  131  138 1   
   138  131  139 1   
   139  132  136 1   
   140  140  141 1   
   141  140  149 1   
   142  141  142 1   
   143  141  144 1   
   144  141  150 1   
   145  142  143 2   
   146  142  162 1   
   147  144  145 1   
   148  144  151 1   
   149  144  152 1   
   150  145  146 1   
   151  145  153 1   
   152  145  154 1   
   153  146  147 1   
   154  146  155 1   
   155  146  156 1   
   156  147  148 1   
   157  147  157 1   
   158  147  158 1   
   159  148  159 1   
   160  148  160 1   
   161  148  161 1   
   162  162  163 1   
   163  162  171 1   
   164  163  164 1   
   165  163  166 1   
   166  163  172 1   
   167  164  165 2   
   168  164  177 1   
   169  166  167 1   
   170  166  173 1   
   171  166  174 1   
   172  167  168 1   
   173  167  175 1   
   174  167  176 1   
   175  168  169 1   
   176  168  170 1   
   177  177  178 1   
   178  177  182 1   
   179  178  179 1   
   180  178  180 1   
   181  178  181 1   
   182  184  185 1   
   183  184  186 1   
@<TRIPOS>SUBSTRUCTURE
     1 MOL         1 TEMP              0 ****  ****    0 ROOT
