@<TRIPOS>MOLECULE
MOL
  188   182     1     0     0
SMALL
resp


@<TRIPOS>ATOM
      1 C1         -3.4250    0.1730   -5.3030 c3        1 MOL     -0.443914
      2 C2         -3.8510    0.1780   -3.8220 c         1 MOL      0.669436
      3 O1         -3.1550   -0.4390   -3.0010 o         1 MOL     -0.555025
      4 H1         -3.1870    1.1900   -5.6160 hc        1 MOL      0.114949
      5 H2         -2.5460   -0.4590   -5.4270 hc        1 MOL      0.114949
      6 H3         -4.2400   -0.2130   -5.9150 hc        1 MOL      0.114949
      7 N1         -5.0240    0.7470   -3.5140 n         1 MOL     -0.659421
      8 C3         -5.5210    0.7880   -2.1420 c3        1 MOL      0.010448
      9 C4         -5.8060   -0.5620   -1.4090 c         1 MOL      0.493014
     10 O2         -6.1760   -0.5720   -0.2410 o         1 MOL     -0.453140
     11 C5         -4.7180    1.7240   -1.2580 c3        1 MOL     -0.199059
     12 C6         -5.6550    2.7670   -0.5860 c         1 MOL      0.707959
     13 O3         -5.1270    3.6380    0.1710 o         1 MOL     -0.652687
     14 O4         -6.8910    2.7610   -0.6860 o         1 MOL     -0.652687
     15 H4         -5.4820    1.2540   -4.2600 hn        1 MOL      0.361978
     16 H5         -6.5330    1.1980   -2.2140 h1        1 MOL      0.065786
     17 H6         -4.0510    2.2520   -1.9270 hc        1 MOL      0.141660
     18 H7         -4.0950    1.2390   -0.4930 hc        1 MOL      0.141660
     19 N2         -5.6900   -1.7050   -2.1940 n         1 MOL     -0.445561
     20 C7         -5.8990   -3.0680   -1.6360 c3        1 MOL     -0.142687
     21 C8         -4.9670   -3.4020   -0.4790 c         1 MOL      0.599202
     22 O5         -5.0350   -4.5070    0.1200 o         1 MOL     -0.588444
     23 C9         -5.7570   -4.1070   -2.7350 c3        1 MOL     -0.255621
     24 C10        -6.6250   -4.0140   -3.9350 c3        1 MOL      0.112770
     25 C11        -8.1290   -4.3330   -3.6840 c3        1 MOL     -0.215140
     26 C12        -8.9020   -4.3080   -4.9700 c3        1 MOL      0.016173
     27 N3        -10.3020   -4.6870   -4.5950 n4        1 MOL     -0.182595
     28 H8         -5.2540   -1.5710   -3.0950 hn        1 MOL      0.334926
     29 H9         -6.8070   -3.0990   -1.0350 h1        1 MOL      0.110713
     30 H10        -6.0460   -5.0570   -2.2940 hc        1 MOL      0.119746
     31 H11        -4.6960   -4.0940   -2.9970 hc        1 MOL      0.119746
     32 H12        -6.2060   -4.8370   -4.5140 hc        1 MOL      0.011941
     33 H13        -6.4080   -3.1060   -4.4860 hc        1 MOL      0.011941
     34 H14        -8.5560   -3.5080   -3.1160 hc        1 MOL      0.106819
     35 H15        -8.2780   -5.3360   -3.3040 hc        1 MOL      0.106819
     36 H16        -8.4360   -4.9850   -5.6900 hx        1 MOL      0.083098
     37 H17        -8.9270   -3.2670   -5.2940 hx        1 MOL      0.083098
     38 H18       -10.9200   -4.7460   -5.3810 hn        1 MOL      0.269845
     39 H19       -10.2630   -5.5910   -4.1410 hn        1 MOL      0.269845
     40 H20       -10.7140   -4.0620   -3.9090 hn        1 MOL      0.269845
     41 N4         -3.9510   -2.5870   -0.2080 n         1 MOL     -0.222294
     42 C13        -2.9590   -2.7010    0.8070 c3        1 MOL     -0.282977
     43 C14        -3.4710   -2.6920    2.1910 c         1 MOL      0.493890
     44 O6         -4.3820   -1.9680    2.5510 o         1 MOL     -0.462062
     45 C15        -1.8920   -1.6370    0.6300 c3        1 MOL      0.272174
     46 C16        -0.6320   -1.8630    1.4570 c         1 MOL      0.454932
     47 O7         -0.5900   -1.6180    2.6910 o         1 MOL     -0.619523
     48 O8          0.3670   -2.2190    0.7840 o         1 MOL     -0.619523
     49 H21        -3.8580   -1.7620   -0.7780 hn        1 MOL      0.236094
     50 H22        -2.3450   -3.5880    0.6410 h1        1 MOL      0.096494
     51 H23        -2.2730   -0.6350    0.8320 hc        1 MOL     -0.028377
     52 H24        -1.7110   -1.5550   -0.4380 hc        1 MOL     -0.028377
     53 N5         -2.8160   -3.5190    3.0090 n         1 MOL     -0.228602
     54 C17        -3.1460   -3.7290    4.4570 c3        1 MOL     -0.309781
     55 C18        -3.0320   -2.3840    5.2390 c         1 MOL      0.655634
     56 O9         -3.8390   -2.2130    6.1450 o         1 MOL     -0.573287
     57 H25        -2.1580   -4.1780    2.6170 hn        1 MOL      0.289010
     58 H26        -2.4560   -4.4950    4.8000 h1        1 MOL      0.139533
     59 H27        -4.1440   -4.1600    4.5170 h1        1 MOL      0.139533
     60 N6         -2.0890   -1.4560    5.0020 n         1 MOL     -0.565288
     61 C19        -2.0270   -0.1350    5.6820 c3        1 MOL      0.139551
     62 C20        -2.5050    1.0150    4.8060 c         1 MOL      0.381066
     63 O10        -2.6780    2.1450    5.3250 o         1 MOL     -0.552393
     64 C21        -0.6260    0.1130    6.3450 c3        1 MOL     -0.204182
     65 C22         0.4020    0.3980    5.3090 c         1 MOL      0.570372
     66 N7          0.6750    1.6930    5.1960 n         1 MOL     -0.713440
     67 O11         1.0120   -0.4740    4.6500 o         1 MOL     -0.558814
     68 H28        -1.5610   -1.6350    4.1530 hn        1 MOL      0.298868
     69 H29        -2.7660   -0.1140    6.4770 h1        1 MOL      0.119799
     70 H30        -0.2790   -0.7820    6.8540 hc        1 MOL      0.076061
     71 H31        -0.6740    0.8180    7.1690 hc        1 MOL      0.076061
     72 H32         0.0940    2.3190    5.7290 hn        1 MOL      0.358543
     73 H33         1.3230    1.9990    4.4860 hn        1 MOL      0.358543
     74 N8         -2.8360    0.7260    3.5220 n         1 MOL      0.023064
     75 C23        -3.2290    1.7200    2.5180 c3        1 MOL     -0.188767
     76 C24        -2.0060    2.3600    1.8100 c         1 MOL      0.668219
     77 O12        -0.8960    2.3530    2.2120 o         1 MOL     -0.570915
     78 H34        -2.7480   -0.2340    3.2050 hn        1 MOL      0.017778
     79 H35        -3.7500    2.5270    3.0430 h1        1 MOL      0.088927
     80 H36        -3.9560    1.4950    1.7350 h1        1 MOL      0.088927
     81 N9         -2.3320    3.0110    0.6910 n         1 MOL     -0.520108
     82 C25        -1.2600    3.5680   -0.1860 c3        1 MOL      0.180628
     83 C26        -0.3660    2.4880   -0.8090 c         1 MOL      0.312310
     84 O13        -0.8460    1.4240   -0.9170 o         1 MOL     -0.410197
     85 C27        -1.8640    4.4490   -1.3320 c3        1 MOL      0.065269
     86 C28        -2.3340    5.8220   -0.9020 ca        1 MOL     -0.054357
     87 C29        -3.6490    6.1670   -1.2500 ca        1 MOL     -0.025946
     88 C30        -1.5410    6.8470   -0.3360 ca        1 MOL     -0.025946
     89 C31        -4.0830    7.5130   -1.1560 ca        1 MOL     -0.356335
     90 C32        -1.9540    8.1890   -0.2940 ca        1 MOL     -0.356335
     91 C33        -3.2140    8.5240   -0.7030 ca        1 MOL      0.397354
     92 O14        -3.5580    9.8170   -0.4830 oh        1 MOL     -0.477785
     93 H37        -3.2700    3.0870    0.3130 hn        1 MOL      0.298584
     94 H38        -0.6180    4.2340    0.3920 h1        1 MOL     -0.024483
     95 H39        -2.5870    3.9050   -1.9460 hc        1 MOL     -0.037033
     96 H40        -0.9870    4.7190   -1.9230 hc        1 MOL     -0.037033
     97 H41        -4.3320    5.4420   -1.6710 ha        1 MOL      0.077526
     98 H42        -0.5390    6.6330   -0.0040 ha        1 MOL      0.077526
     99 H43        -5.1240    7.7400   -1.3140 ha        1 MOL      0.171406
    100 H44        -1.2830    8.9480    0.0720 ha        1 MOL      0.171406
    101 H45        -2.8950   10.2790    0.0310 ho        1 MOL      0.330647
    102 N10         0.8520    2.8990   -1.2300 n         1 MOL     -0.363103
    103 C34         1.9210    2.1830   -1.8640 c3        1 MOL     -0.131223
    104 C35         3.1570    2.1020   -0.9840 c         1 MOL      0.650592
    105 O15         3.8160    1.0500   -0.8930 o         1 MOL     -0.504375
    106 C36         2.1970    2.5780   -3.2980 c3        1 MOL      0.196889
    107 C37         0.8780    2.4410   -4.0920 c3        1 MOL     -0.344507
    108 C38         3.2450    1.6530   -4.0050 c3        1 MOL     -0.578677
    109 C39         0.8790    2.6660   -5.5900 c3        1 MOL     -0.118342
    110 H46         1.1450    3.8090   -0.9080 hn        1 MOL      0.237014
    111 H47         1.6170    1.1410   -1.8720 h1        1 MOL      0.124504
    112 H48         2.6080    3.5830   -3.3510 hc        1 MOL     -0.025973
    113 H49         0.2050    3.1740   -3.6450 hc        1 MOL      0.189716
    114 H50         0.5510    1.4190   -3.9350 hc        1 MOL      0.189716
    115 H51         3.5360    2.2340   -4.8770 hc        1 MOL      0.165881
    116 H52         4.1090    1.5450   -3.3400 hc        1 MOL      0.165881
    117 H53         2.8330    0.6940   -4.3320 hc        1 MOL      0.165881
    118 H54        -0.1090    2.6620   -6.0490 hc        1 MOL      0.045133
    119 H55         1.2270    3.6710   -5.8290 hc        1 MOL      0.045133
    120 H56         1.4860    1.9300   -6.1250 hc        1 MOL      0.045133
    121 N11         3.4810    3.1240   -0.1930 n         1 MOL     -0.543775
    122 C40         4.7190    3.2620    0.5530 c3        1 MOL     -0.002532
    123 C41         6.0490    2.8080   -0.1540 c         1 MOL      0.338766
    124 O16         6.9640    2.4520    0.6080 o         1 MOL     -0.471341
    125 C42         4.8280    4.7240    1.0470 c3        1 MOL      0.305464
    126 O17         3.7870    5.2260    1.9110 oh        1 MOL     -0.581125
    127 H57         2.8730    3.9280   -0.1850 hn        1 MOL      0.285865
    128 H58         4.6350    2.6960    1.4840 h1        1 MOL      0.139204
    129 H59         4.9520    5.3320    0.1510 h1        1 MOL     -0.003485
    130 H60         5.7720    4.8180    1.5860 h1        1 MOL     -0.003485
    131 H61         3.3930    5.9840    1.4660 ho        1 MOL      0.379400
    132 N12         6.2570    2.8100   -1.5090 n         1 MOL     -0.300615
    133 C43         7.4740    2.2670   -2.1380 c3        1 MOL      0.193665
    134 C44         7.8640    0.7910   -1.8480 c         1 MOL      0.525015
    135 O18         9.0720    0.4680   -1.7820 o         1 MOL     -0.538498
    136 C45         8.6900    3.2640   -1.8960 c3        1 MOL     -0.503181
    137 H62         5.5560    3.1940   -2.1260 hn        1 MOL      0.246676
    138 H63         7.3320    2.3860   -3.2090 h1        1 MOL      0.044853
    139 H64         8.3560    4.2870   -2.0980 hc        1 MOL      0.146650
    140 H65         8.9610    3.1370   -0.8490 hc        1 MOL      0.146650
    141 H66         9.4830    3.0310   -2.6030 hc        1 MOL      0.146650
    142 N13         6.8880   -0.0110   -1.6900 n         1 MOL     -0.575697
    143 C46         6.9600   -1.3350   -1.0140 c3        1 MOL      0.493869
    144 C47         5.8780   -2.3970   -1.4410 c         1 MOL      0.461270
    145 O19         4.8760   -2.0780   -2.1040 o         1 MOL     -0.512579
    146 C48         6.8730   -1.1610    0.5100 c3        1 MOL     -0.578910
    147 H67         5.9600    0.4000   -1.6440 hn        1 MOL      0.223084
    148 H68         7.9090   -1.8130   -1.2440 h1        1 MOL     -0.015807
    149 H69         5.9050   -0.7760    0.8650 hc        1 MOL      0.155494
    150 H70         6.9940   -2.1560    0.9450 hc        1 MOL      0.155494
    151 H71         7.6110   -0.4260    0.8220 hc        1 MOL      0.155494
    152 N14         6.2160   -3.6660   -1.3210 n         1 MOL     -0.471775
    153 C49         5.4150   -4.8370   -1.7470 c3        1 MOL     -0.014681
    154 C50         5.2250   -4.9440   -3.3210 c         1 MOL      0.362223
    155 O20         4.4480   -5.7280   -3.8570 o         1 MOL     -0.484516
    156 C51         4.0170   -4.8210   -1.0180 c3        1 MOL     -0.138242
    157 C52         4.2000   -5.3350    0.3910 c3        1 MOL     -0.060019
    158 C53         2.9820   -4.9290    1.2000 c         1 MOL      0.495755
    159 O21         3.0270   -3.9630    2.0290 o         1 MOL     -0.625153
    160 O22         1.8790   -5.5350    1.0970 o         1 MOL     -0.625153
    161 H72         6.9890   -3.8130   -0.6900 hn        1 MOL      0.296020
    162 H73         5.9100   -5.7600   -1.4520 h1        1 MOL      0.096632
    163 H74         3.4190   -5.6500   -1.4020 hc        1 MOL      0.135494
    164 H75         3.5510   -3.8520   -0.8770 hc        1 MOL      0.135494
    165 H76         5.0540   -4.8260    0.8390 hc        1 MOL     -0.004916
    166 H77         4.2450   -6.4230    0.4210 hc        1 MOL     -0.004916
    167 N15         6.1450   -4.2680   -4.0400 n         1 MOL     -0.175686
    168 C54         6.2460   -4.2180   -5.5120 c3        1 MOL     -0.006125
    169 H78         6.3050   -3.1790   -5.8360 h1        1 MOL      0.044997
    170 H79         7.1410   -4.7500   -5.8330 h1        1 MOL      0.044997
    171 H80         5.3670   -4.6860   -5.9530 h1        1 MOL      0.044997
    172 H81         6.8270   -3.8010   -3.4500 hn        1 MOL      0.159000
    173 Ca1         2.0380   -1.6360    2.6260 Ca        1 MOL      1.705620
    174 O23         1.2890    0.8050    1.8620 oh        1 MOL     -0.848031
    175 H82         1.9250    1.5260    1.7890 ho        1 MOL      0.407340
    176 H83         0.4470    1.2420    1.9860 ho        1 MOL      0.407340
    177 O24         4.1130   -0.0250    2.7040 oh        1 MOL     -0.848031
    178 H84         4.9820   -0.4230    2.6330 ho        1 MOL      0.407340
    179 H85         4.2190    0.6430    3.3790 ho        1 MOL      0.407340
    180 O25         0.9970   -3.5850    4.5120 oh        1 MOL     -0.848031
    181 H86         1.7590   -3.3760    5.0520 ho        1 MOL      0.407340
    182 H87         0.5950   -4.3370    4.9420 ho        1 MOL      0.407340
    183 O26         3.0040   -1.1470    0.2210 oh        1 MOL     -0.848031
    184 H88         3.4500   -0.3170    0.0460 ho        1 MOL      0.407340
    185 H89         2.5070   -1.3200   -0.5830 ho        1 MOL      0.407340
    186 O27         3.3140   -2.4030    4.8350 oh        1 MOL     -0.848031
    187 H90         3.0560   -2.2400    5.7420 ho        1 MOL      0.407340
    188 H91         4.1090   -2.9400    4.9090 ho        1 MOL      0.407340
@<TRIPOS>BOND
     1    1    2 1   
     2    1    4 1   
     3    1    5 1   
     4    1    6 1   
     5    2    3 2   
     6    2    7 1   
     7    7    8 1   
     8    7   15 1   
     9    8    9 1   
    10    8   11 1   
    11    8   16 1   
    12    9   10 2   
    13    9   19 1   
    14   11   12 1   
    15   11   17 1   
    16   11   18 1   
    17   12   13 1   
    18   12   14 1   
    19   19   20 1   
    20   19   28 1   
    21   20   21 1   
    22   20   23 1   
    23   20   29 1   
    24   21   22 2   
    25   21   41 1   
    26   23   24 1   
    27   23   30 1   
    28   23   31 1   
    29   24   25 1   
    30   24   32 1   
    31   24   33 1   
    32   25   26 1   
    33   25   34 1   
    34   25   35 1   
    35   26   27 1   
    36   26   36 1   
    37   26   37 1   
    38   27   38 1   
    39   27   39 1   
    40   27   40 1   
    41   41   42 1   
    42   41   49 1   
    43   42   43 1   
    44   42   45 1   
    45   42   50 1   
    46   43   44 2   
    47   43   53 1   
    48   45   46 1   
    49   45   51 1   
    50   45   52 1   
    51   46   47 1   
    52   46   48 1   
    53   53   54 1   
    54   53   57 1   
    55   54   55 1   
    56   54   58 1   
    57   54   59 1   
    58   55   56 2   
    59   55   60 1   
    60   60   61 1   
    61   60   68 1   
    62   61   62 1   
    63   61   64 1   
    64   61   69 1   
    65   62   63 2   
    66   62   74 1   
    67   64   65 1   
    68   64   70 1   
    69   64   71 1   
    70   65   66 1   
    71   65   67 2   
    72   66   72 1   
    73   66   73 1   
    74   74   75 1   
    75   74   78 1   
    76   75   76 1   
    77   75   79 1   
    78   75   80 1   
    79   76   77 2   
    80   76   81 1   
    81   81   82 1   
    82   81   93 1   
    83   82   83 1   
    84   82   85 1   
    85   82   94 1   
    86   83   84 2   
    87   83  102 1   
    88   85   86 1   
    89   85   95 1   
    90   85   96 1   
    91   86   87 ar  
    92   86   88 ar  
    93   87   89 ar  
    94   87   97 1   
    95   88   90 ar  
    96   88   98 1   
    97   89   91 ar  
    98   89   99 1   
    99   90   91 ar  
   100   90  100 1   
   101   91   92 1   
   102   92  101 1   
   103  102  103 1   
   104  102  110 1   
   105  103  104 1   
   106  103  106 1   
   107  103  111 1   
   108  104  105 2   
   109  104  121 1   
   110  106  107 1   
   111  106  108 1   
   112  106  112 1   
   113  107  109 1   
   114  107  113 1   
   115  107  114 1   
   116  108  115 1   
   117  108  116 1   
   118  108  117 1   
   119  109  118 1   
   120  109  119 1   
   121  109  120 1   
   122  121  122 1   
   123  121  127 1   
   124  122  123 1   
   125  122  125 1   
   126  122  128 1   
   127  123  124 2   
   128  123  132 1   
   129  125  126 1   
   130  125  129 1   
   131  125  130 1   
   132  126  131 1   
   133  132  133 1   
   134  132  137 1   
   135  133  134 1   
   136  133  136 1   
   137  133  138 1   
   138  134  135 2   
   139  134  142 1   
   140  136  139 1   
   141  136  140 1   
   142  136  141 1   
   143  142  143 1   
   144  142  147 1   
   145  143  144 1   
   146  143  146 1   
   147  143  148 1   
   148  144  145 2   
   149  144  152 1   
   150  146  149 1   
   151  146  150 1   
   152  146  151 1   
   153  152  153 1   
   154  152  161 1   
   155  153  154 1   
   156  153  156 1   
   157  153  162 1   
   158  154  155 2   
   159  154  167 1   
   160  156  157 1   
   161  156  163 1   
   162  156  164 1   
   163  157  158 1   
   164  157  165 1   
   165  157  166 1   
   166  158  159 1   
   167  158  160 1   
   168  167  168 1   
   169  167  172 1   
   170  168  169 1   
   171  168  170 1   
   172  168  171 1   
   173  174  175 1   
   174  174  176 1   
   175  177  178 1   
   176  177  179 1   
   177  180  181 1   
   178  180  182 1   
   179  183  184 1   
   180  183  185 1   
   181  186  187 1   
   182  186  188 1   
@<TRIPOS>SUBSTRUCTURE
     1 MOL         1 TEMP              0 ****  ****    0 ROOT
