@<TRIPOS>MOLECULE
MOL
  178   175     1     0     0
SMALL
resp


@<TRIPOS>ATOM
      1 C1        -11.8420   -6.1370   -0.5970 c3        1 MOL     -0.376118
      2 C2        -10.6400   -5.4040    0.0430 c         1 MOL      0.710664
      3 O1        -10.0330   -5.8900    1.0090 o         1 MOL     -0.611414
      4 H1        -12.0360   -7.0610   -0.0530 hc        1 MOL      0.092449
      5 H2        -12.7240   -5.4970   -0.5530 hc        1 MOL      0.092449
      6 H3        -11.6150   -6.3700   -1.6370 hc        1 MOL      0.092449
      7 N1        -10.2670   -4.2080   -0.3520 n         1 MOL     -0.656900
      8 C3        -10.5730   -3.5060   -1.6290 c3        1 MOL      0.348604
      9 C4        -11.3950   -2.1540   -1.5480 c         1 MOL      0.391634
     10 O2        -11.6900   -1.5350   -2.5630 o         1 MOL     -0.535422
     11 C5         -9.2860   -3.2370   -2.4210 c3        1 MOL     -0.449972
     12 C6         -8.3250   -2.3350   -1.6140 c         1 MOL      0.918581
     13 O3         -7.1760   -2.0810   -2.1010 o         1 MOL     -0.760705
     14 O4         -8.6310   -1.9930   -0.4210 o         1 MOL     -0.760705
     15 H4         -9.5760   -3.7650    0.2450 hn        1 MOL      0.356637
     16 H5        -11.2100   -4.1270   -2.2510 h1        1 MOL      0.011841
     17 H6         -9.3980   -2.6920   -3.3630 hc        1 MOL      0.107059
     18 H7         -8.8310   -4.2090   -2.5970 hc        1 MOL      0.107059
     19 N2        -11.6080   -1.7840   -0.3090 n         1 MOL     -0.493850
     20 C7        -12.4770   -0.6200   -0.0070 c3        1 MOL      0.319614
     21 C8        -11.8230    0.8010   -0.0500 c         1 MOL      0.261236
     22 O5        -12.4760    1.8070    0.1640 o         1 MOL     -0.517874
     23 C9        -13.1640   -1.0680    1.3210 c3        1 MOL     -0.408180
     24 H8        -11.0110   -2.2170    0.3860 hn        1 MOL      0.308259
     25 H9        -13.2100   -0.6330   -0.8040 h1        1 MOL      0.045205
     26 H10       -13.9480   -0.3580    1.6030 hc        1 MOL      0.112438
     27 H11       -13.6460   -2.0460    1.3340 hc        1 MOL      0.112438
     28 H12       -12.3600   -1.0130    2.0530 hc        1 MOL      0.112438
     29 N3        -10.4900    0.8060   -0.0930 n         1 MOL     -0.000137
     30 C10        -9.5950    1.9320    0.1930 c3        1 MOL      0.031670
     31 C11        -8.4390    1.9960   -0.7510 c         1 MOL      0.360106
     32 O6         -7.9870    0.9570   -1.3270 o         1 MOL     -0.546796
     33 C12        -9.1880    2.1420    1.6470 c3        1 MOL     -0.108383
     34 C13        -8.6960    0.8470    2.2190 c         1 MOL      0.677236
     35 O7         -7.6550    0.3680    1.7150 o         1 MOL     -0.701137
     36 O8         -9.3550    0.2570    3.1240 o         1 MOL     -0.701137
     37 H13       -10.0450   -0.0850   -0.2570 hn        1 MOL      0.136315
     38 H14       -10.2340    2.7400   -0.1760 h1        1 MOL      0.015814
     39 H15       -10.0800    2.3900    2.2260 hc        1 MOL      0.025266
     40 H16        -8.4920    2.9830    1.5900 hc        1 MOL      0.025266
     41 N4         -7.8710    3.1970   -0.9270 n         1 MOL     -0.209507
     42 C14        -6.6390    3.5030   -1.7570 c3        1 MOL     -0.390674
     43 C15        -5.4280    2.7430   -1.1700 c         1 MOL      0.815900
     44 O9         -5.5440    1.8440   -0.3730 o         1 MOL     -0.667449
     45 H17        -8.3080    3.9430   -0.4160 hn        1 MOL      0.255347
     46 H18        -6.2940    4.5380   -1.7310 h1        1 MOL      0.166905
     47 H19        -6.8070    3.2600   -2.8070 h1        1 MOL      0.166905
     48 N5         -4.1820    3.1440   -1.5000 n         1 MOL     -0.581529
     49 C16        -2.8990    2.5380   -1.0690 c3        1 MOL     -0.005086
     50 C17        -1.8200    3.6630   -1.0690 c         1 MOL      0.577655
     51 O10        -1.7940    4.4630   -1.9880 o         1 MOL     -0.539331
     52 C18        -2.3390    1.4870   -2.0380 c3        1 MOL     -0.176308
     53 C19        -3.1300    0.1960   -2.1280 c         1 MOL      0.629065
     54 N6         -2.4210   -0.9500   -2.1770 n         1 MOL     -0.771740
     55 O11        -4.3460    0.0850   -1.9900 o         1 MOL     -0.572255
     56 H20        -4.1600    3.9920   -2.0330 hn        1 MOL      0.299540
     57 H21        -2.9730    2.1260   -0.0530 h1        1 MOL      0.127146
     58 H22        -1.2950    1.2750   -1.7870 hc        1 MOL      0.106599
     59 H23        -2.3720    1.8720   -3.0600 hc        1 MOL      0.106599
     60 H24        -1.4480   -0.8680   -2.4070 hn        1 MOL      0.377312
     61 H25        -2.9680   -1.7990   -2.1310 hn        1 MOL      0.377312
     62 N7         -0.9940    3.7130   -0.0370 n         1 MOL     -0.527916
     63 C20         0.1070    4.6230    0.1460 c3        1 MOL      0.203929
     64 C21         0.3760    4.8000    1.6570 c         1 MOL      0.480045
     65 O12        -0.3870    4.3540    2.5100 o         1 MOL     -0.538693
     66 H26        -1.1540    2.9520    0.6150 hn        1 MOL      0.308970
     67 H27        -0.1860    5.5600   -0.3450 h1        1 MOL      0.064629
     68 H28         0.9910    4.2140   -0.3430 h1        1 MOL      0.064629
     69 N8          1.4620    5.5180    2.0110 n         1 MOL     -0.394100
     70 C22         2.4170    6.2720    1.1270 c3        1 MOL     -0.232158
     71 C23         3.5690    5.4890    0.4440 c         1 MOL      0.387229
     72 O13         3.9590    5.8120   -0.7090 o         1 MOL     -0.507570
     73 C24         3.1510    7.3630    2.0260 c3        1 MOL      0.320402
     74 C25         2.1140    8.2330    2.7880 c3        1 MOL     -0.547084
     75 O14         3.9070    6.7370    3.0490 oh        1 MOL     -0.537480
     76 H29         1.6130    5.6130    3.0020 hn        1 MOL      0.297141
     77 H30         1.8400    6.8540    0.4110 h1        1 MOL      0.131213
     78 H31         3.8930    7.8900    1.4270 h1        1 MOL      0.053231
     79 H32         3.7810    7.2910    3.8200 ho        1 MOL      0.371595
     80 H33         2.5640    8.9780    3.4480 hc        1 MOL      0.141443
     81 H34         1.4380    8.7250    2.0980 hc        1 MOL      0.141443
     82 H35         1.5640    7.6710    3.5470 hc        1 MOL      0.141443
     83 N9          3.9370    4.4200    1.1810 n         1 MOL     -0.018034
     84 C26         4.8480    3.3310    0.8290 c3        1 MOL     -0.029649
     85 C27         4.0740    2.1120    0.2820 c         1 MOL      0.529904
     86 O15         2.9020    1.9220    0.6320 o         1 MOL     -0.562761
     87 C28         5.7060    2.9830    2.0280 c3        1 MOL      0.177156
     88 C29         4.8950    2.7020    3.3600 c3        1 MOL      0.304461
     89 C30         6.7020    4.1680    2.2430 c3        1 MOL     -0.376499
     90 C31         5.7980    1.9270    4.3460 c3        1 MOL     -0.433706
     91 H36         3.6310    4.3500    2.1430 hn        1 MOL      0.087011
     92 H37         5.4630    3.7840    0.0600 h1        1 MOL      0.050221
     93 H38         6.3040    2.0940    1.8310 hc        1 MOL     -0.012194
     94 H39         3.9820    2.1420    3.1410 hc        1 MOL     -0.045738
     95 H40         4.5350    3.6610    3.7400 hc        1 MOL     -0.045738
     96 H41         7.5700    3.8840    2.8270 hc        1 MOL      0.069434
     97 H42         7.2430    4.2790    1.2970 hc        1 MOL      0.069434
     98 H43         6.2650    5.1270    2.5020 hc        1 MOL      0.069434
     99 H44         5.3170    1.5760    5.2640 hc        1 MOL      0.094959
    100 H45         6.0720    0.9890    3.8630 hc        1 MOL      0.094959
    101 H46         6.6310    2.5870    4.5790 hc        1 MOL      0.094959
    102 N10         4.6560    1.2490   -0.4970 n         1 MOL     -0.506993
    103 C32         5.9870    1.3190   -1.0810 c3        1 MOL      0.399840
    104 C33         6.4690   -0.1100   -1.3370 c         1 MOL      0.187128
    105 O16         5.7600   -0.9650   -1.8570 o         1 MOL     -0.391415
    106 C34         6.1670    2.1120   -2.3530 c3        1 MOL     -0.203542
    107 C35         5.1500    1.7140   -3.4920 c         1 MOL      0.682432
    108 O17         3.9580    1.8000   -3.2590 o         1 MOL     -0.701605
    109 O18         5.6060    1.2320   -4.5560 o         1 MOL     -0.701605
    110 H47         4.0440    0.5220   -0.8450 hn        1 MOL      0.362132
    111 H48         6.6320    1.7370   -0.3090 h1        1 MOL     -0.090452
    112 H49         7.2030    2.0660   -2.6880 hc        1 MOL      0.019410
    113 H50         6.0650    3.1610   -2.0770 hc        1 MOL      0.019410
    114 N11         7.7790   -0.2840   -1.1570 n         1 MOL     -0.339415
    115 C36         8.3880   -1.5680   -1.4140 c3        1 MOL      0.424603
    116 C37         9.4480   -1.9200   -0.2880 c         1 MOL     -0.022371
    117 O19        10.0870   -0.9560    0.2510 o         1 MOL     -0.453103
    118 C38         9.0860   -1.6340   -2.7700 c3        1 MOL     -0.025070
    119 C39        10.2750   -0.6620   -3.0450 ca        1 MOL      0.008780
    120 C40        11.6320   -1.1340   -2.9800 ca        1 MOL     -0.076798
    121 C41        10.0500    0.7180   -3.3110 ca        1 MOL     -0.076798
    122 C42        12.7070   -0.2480   -3.2630 ca        1 MOL     -0.131016
    123 C43        11.1110    1.5960   -3.5540 ca        1 MOL     -0.131016
    124 C44        12.4550    1.0960   -3.5670 ca        1 MOL     -0.151080
    125 H51         8.3380    0.5100   -0.8820 hn        1 MOL      0.276878
    126 H52         7.6130   -2.3170   -1.5320 h1        1 MOL     -0.020972
    127 H53         8.3940   -1.4920   -3.5990 hc        1 MOL      0.020185
    128 H54         9.4960   -2.6220   -2.9370 hc        1 MOL      0.020185
    129 H55        11.8800   -2.1640   -2.7730 ha        1 MOL      0.072825
    130 H56         9.0190    1.0390   -3.3720 ha        1 MOL      0.072825
    131 H57        13.7340   -0.5670   -3.3230 ha        1 MOL      0.105289
    132 H58        10.9080    2.6310   -3.7930 ha        1 MOL      0.105289
    133 H59        13.3080    1.7460   -3.6650 ha        1 MOL      0.103806
    134 N12         9.6740   -3.2300    0.0450 n         1 MOL      0.240965
    135 C45         9.0030   -4.4220   -0.5460 c3        1 MOL     -0.187500
    136 C46         7.5800   -4.7430    0.0570 c         1 MOL      0.641169
    137 O20         6.7030   -5.3240   -0.6130 o         1 MOL     -0.573299
    138 C47         9.9560   -5.5510   -0.2270 c3        1 MOL     -0.161881
    139 C48        10.6010   -5.1270    1.0660 c3        1 MOL      0.042161
    140 C49        10.6680   -3.6030    0.9520 c3        1 MOL     -0.160541
    141 H60         8.9080   -4.3620   -1.6310 h1        1 MOL      0.103749
    142 H61         9.5740   -6.5720   -0.2300 hc        1 MOL      0.062763
    143 H62        10.7180   -5.5900   -1.0100 hc        1 MOL      0.062763
    144 H63        10.0010   -5.4320    1.9170 hc        1 MOL      0.010325
    145 H64        11.6040   -5.5360    1.2100 hc        1 MOL      0.010325
    146 H65        10.4770   -3.2540    1.9690 h1        1 MOL      0.068335
    147 H66        11.6700   -3.3020    0.6290 h1        1 MOL      0.068335
    148 N13         7.3060   -4.2850    1.2980 n         1 MOL     -0.720188
    149 C50         5.9420   -4.4420    1.8790 c3        1 MOL      0.444894
    150 C51         6.0290   -5.0280    3.3530 c         1 MOL      0.344898
    151 O21         6.0760   -4.2550    4.2890 o         1 MOL     -0.523554
    152 C52         5.1840   -3.0770    1.7510 c3        1 MOL     -0.072132
    153 C53         3.6690   -3.4530    1.8720 c3        1 MOL     -0.052356
    154 C54         2.7450   -2.2600    1.9470 c         1 MOL      0.697529
    155 O22         2.3130   -1.7750    0.8780 o         1 MOL     -0.733285
    156 O23         2.4230   -1.8350    3.0530 o         1 MOL     -0.733285
    157 H67         8.0300   -3.7740    1.7810 hn        1 MOL      0.328400
    158 H68         5.3590   -5.1710    1.3000 h1        1 MOL      0.063513
    159 H69         5.3880   -2.6910    0.7490 hc        1 MOL      0.037062
    160 H70         5.5330   -2.4710    2.5940 hc        1 MOL      0.037062
    161 H71         3.5270   -4.0970    2.7420 hc        1 MOL     -0.050830
    162 H72         3.4550   -4.0140    0.9570 hc        1 MOL     -0.050830
    163 N14         5.9230   -6.3170    3.5920 n         1 MOL     -0.348605
    164 C55         5.7090   -7.4520    2.6000 c3        1 MOL     -0.095508
    165 H73         5.1960   -8.2750    3.0960 h1        1 MOL      0.068447
    166 H74         5.1040   -7.0970    1.7660 h1        1 MOL      0.068447
    167 H75         6.6740   -7.7970    2.2280 h1        1 MOL      0.068447
    168 H76         5.9580   -6.5000    4.5770 hn        1 MOL      0.267856
    169 Ca1        -6.2890   -0.7360   -0.0320 Ca        1 MOL      1.730084
    170 O24        -4.0720   -0.3690    1.5040 oh        1 MOL     -0.845567
    171 H77        -3.8750   -0.9830    2.2080 ho        1 MOL      0.416474
    172 H78        -3.3610    0.2680    1.5310 ho        1 MOL      0.416474
    173 O25        -4.8530   -2.9680   -0.4430 oh        1 MOL     -0.845567
    174 H79        -3.9460   -3.1730   -0.2210 ho        1 MOL      0.416474
    175 H80        -5.2590   -3.8230   -0.6160 ho        1 MOL      0.416474
    176 O26        -7.0160   -2.3940    1.9510 oh        1 MOL     -0.845567
    177 H81        -7.4190   -1.7740    2.5530 ho        1 MOL      0.416474
    178 H82        -6.6540   -3.0780    2.5150 ho        1 MOL      0.416474
@<TRIPOS>BOND
     1    1    2 1   
     2    1    4 1   
     3    1    5 1   
     4    1    6 1   
     5    2    3 2   
     6    2    7 1   
     7    7    8 1   
     8    7   15 1   
     9    8    9 1   
    10    8   11 1   
    11    8   16 1   
    12    9   10 2   
    13    9   19 1   
    14   11   12 1   
    15   11   17 1   
    16   11   18 1   
    17   12   13 1   
    18   12   14 1   
    19   19   20 1   
    20   19   24 1   
    21   20   21 1   
    22   20   23 1   
    23   20   25 1   
    24   21   22 2   
    25   21   29 1   
    26   23   26 1   
    27   23   27 1   
    28   23   28 1   
    29   29   30 1   
    30   29   37 1   
    31   30   31 1   
    32   30   33 1   
    33   30   38 1   
    34   31   32 2   
    35   31   41 1   
    36   33   34 1   
    37   33   39 1   
    38   33   40 1   
    39   34   35 1   
    40   34   36 1   
    41   41   42 1   
    42   41   45 1   
    43   42   43 1   
    44   42   46 1   
    45   42   47 1   
    46   43   44 2   
    47   43   48 1   
    48   48   49 1   
    49   48   56 1   
    50   49   50 1   
    51   49   52 1   
    52   49   57 1   
    53   50   51 2   
    54   50   62 1   
    55   52   53 1   
    56   52   58 1   
    57   52   59 1   
    58   53   54 1   
    59   53   55 2   
    60   54   60 1   
    61   54   61 1   
    62   62   63 1   
    63   62   66 1   
    64   63   64 1   
    65   63   67 1   
    66   63   68 1   
    67   64   65 2   
    68   64   69 1   
    69   69   70 1   
    70   69   76 1   
    71   70   71 1   
    72   70   73 1   
    73   70   77 1   
    74   71   72 2   
    75   71   83 1   
    76   73   74 1   
    77   73   75 1   
    78   73   78 1   
    79   74   80 1   
    80   74   81 1   
    81   74   82 1   
    82   75   79 1   
    83   83   84 1   
    84   83   91 1   
    85   84   85 1   
    86   84   87 1   
    87   84   92 1   
    88   85   86 2   
    89   85  102 1   
    90   87   88 1   
    91   87   89 1   
    92   87   93 1   
    93   88   90 1   
    94   88   94 1   
    95   88   95 1   
    96   89   96 1   
    97   89   97 1   
    98   89   98 1   
    99   90   99 1   
   100   90  100 1   
   101   90  101 1   
   102  102  103 1   
   103  102  110 1   
   104  103  104 1   
   105  103  106 1   
   106  103  111 1   
   107  104  105 2   
   108  104  114 1   
   109  106  107 1   
   110  106  112 1   
   111  106  113 1   
   112  107  108 1   
   113  107  109 1   
   114  114  115 1   
   115  114  125 1   
   116  115  116 1   
   117  115  118 1   
   118  115  126 1   
   119  116  117 2   
   120  116  134 1   
   121  118  119 1   
   122  118  127 1   
   123  118  128 1   
   124  119  120 ar  
   125  119  121 ar  
   126  120  122 ar  
   127  120  129 1   
   128  121  123 ar  
   129  121  130 1   
   130  122  124 ar  
   131  122  131 1   
   132  123  124 ar  
   133  123  132 1   
   134  124  133 1   
   135  134  135 1   
   136  134  140 1   
   137  135  136 1   
   138  135  138 1   
   139  135  141 1   
   140  136  137 2   
   141  136  148 1   
   142  138  139 1   
   143  138  142 1   
   144  138  143 1   
   145  139  140 1   
   146  139  144 1   
   147  139  145 1   
   148  140  146 1   
   149  140  147 1   
   150  148  149 1   
   151  148  157 1   
   152  149  150 1   
   153  149  152 1   
   154  149  158 1   
   155  150  151 2   
   156  150  163 1   
   157  152  153 1   
   158  152  159 1   
   159  152  160 1   
   160  153  154 1   
   161  153  161 1   
   162  153  162 1   
   163  154  155 1   
   164  154  156 1   
   165  163  164 1   
   166  163  168 1   
   167  164  165 1   
   168  164  166 1   
   169  164  167 1   
   170  170  171 1   
   171  170  172 1   
   172  173  174 1   
   173  173  175 1   
   174  176  177 1   
   175  176  178 1   
@<TRIPOS>SUBSTRUCTURE
     1 MOL         1 TEMP              0 ****  ****    0 ROOT
