@<TRIPOS>MOLECULE
MOL
  195   189     1     0     0
SMALL
resp


@<TRIPOS>ATOM
      1 C1          6.3090    0.4040    5.8170 c3        1 MOL     -0.260240
      2 C2          5.7540    0.3990    4.3610 c         1 MOL      0.766162
      3 O1          5.5120    1.5020    3.8150 o         1 MOL     -0.617684
      4 H1          6.0920    1.3640    6.2850 hc        1 MOL      0.065107
      5 H2          5.8360   -0.3940    6.3900 hc        1 MOL      0.065107
      6 H3          7.3880    0.2460    5.7960 hc        1 MOL      0.065107
      7 N1          5.5850   -0.7370    3.6880 n         1 MOL     -0.578452
      8 C3          5.2150   -0.7440    2.2990 c3        1 MOL      0.354790
      9 C4          3.7260   -0.6840    2.0750 c         1 MOL      0.000822
     10 O2          3.2780   -0.6250    0.8990 o         1 MOL     -0.136050
     11 C5          5.8710   -1.8200    1.4730 c3        1 MOL     -0.151835
     12 C6          7.3220   -2.0670    1.7590 c         1 MOL      0.708364
     13 O3          7.7650   -2.4560    2.8650 o         1 MOL     -0.686489
     14 O4          8.1040   -2.0430    0.8100 o         1 MOL     -0.686489
     15 H4          6.0820   -1.5750    3.9620 hn        1 MOL      0.257685
     16 H5          5.6110    0.1540    1.8460 h1        1 MOL      0.070377
     17 H6          5.7630   -1.5330    0.4190 hc        1 MOL     -0.007419
     18 H7          5.3130   -2.7500    1.5100 hc        1 MOL     -0.007419
     19 N2          2.9010   -0.6670    3.1060 n         1 MOL     -0.195533
     20 C7          1.3950   -0.6720    2.9830 c3        1 MOL     -0.068797
     21 C8          0.8010    0.7500    2.8940 c         1 MOL      0.566241
     22 O5          1.0440    1.5400    3.7580 o         1 MOL     -0.537951
     23 C9          0.7910   -1.4650    4.1680 c3        1 MOL      0.009447
     24 C10         1.0440   -2.9860    4.1560 c3        1 MOL      0.001911
     25 C11        -0.0920   -3.7380    4.8620 c3        1 MOL     -0.055770
     26 C12         0.2460   -5.2600    4.7600 c3        1 MOL      0.057902
     27 N3         -0.8150   -6.0690    5.2240 n4        1 MOL     -0.195762
     28 H8          3.3470   -0.5830    4.0140 hn        1 MOL      0.203699
     29 H9          1.1970   -1.2190    2.0620 h1        1 MOL      0.161918
     30 H10        -0.2700   -1.3290    3.9490 hc        1 MOL      0.028896
     31 H11         0.9950   -1.0690    5.1640 hc        1 MOL      0.028896
     32 H12         2.0210   -3.1980    4.6060 hc        1 MOL      0.019516
     33 H13         0.9840   -3.3280    3.1200 hc        1 MOL      0.019516
     34 H14        -1.0070   -3.5170    4.3050 hc        1 MOL      0.041114
     35 H15        -0.2960   -3.3600    5.8700 hc        1 MOL      0.041114
     36 H16         1.1470   -5.4050    5.3490 hx        1 MOL      0.061491
     37 H17         0.4890   -5.5250    3.7360 hx        1 MOL      0.061491
     38 H18        -0.5110   -6.9340    5.6580 hn        1 MOL      0.257365
     39 H19        -1.4010   -5.5680    5.8720 hn        1 MOL      0.257365
     40 H20        -1.5090   -6.3410    4.5330 hn        1 MOL      0.257365
     41 N4         -0.1700    1.0370    2.0270 n         1 MOL     -0.168857
     42 C13        -0.7530    0.2760    0.9580 c3        1 MOL     -0.600984
     43 C14        -1.4430   -1.0300    1.3420 c         1 MOL      0.244207
     44 O6         -0.9020   -2.1580    1.0780 o         1 MOL     -0.420104
     45 C15         0.0590    0.3360   -0.3520 c3        1 MOL     -0.151512
     46 C16         0.0650    1.7210   -1.0080 c         1 MOL      0.444677
     47 O7          0.6230    1.8120   -2.1250 o         1 MOL     -0.631378
     48 O8         -0.4960    2.7590   -0.4980 o         1 MOL     -0.631378
     49 H21        -0.4500    2.0050    2.0540 hn        1 MOL      0.189581
     50 H22        -1.6180    0.8980    0.7080 h1        1 MOL      0.147026
     51 H23        -0.3410   -0.4050   -1.0380 hc        1 MOL      0.149453
     52 H24         1.0450   -0.0290   -0.0780 hc        1 MOL      0.149453
     53 N5         -2.4670   -0.9310    2.2030 n         1 MOL     -0.040777
     54 C17        -3.3660    0.1990    2.5300 c3        1 MOL     -0.251132
     55 C18        -4.7360   -0.1610    3.1720 c         1 MOL      0.613417
     56 O9         -4.9680   -1.2910    3.5130 o         1 MOL     -0.552495
     57 H25        -2.7550   -1.8480    2.5040 hn        1 MOL      0.177016
     58 H26        -3.7380    0.5300    1.5660 h1        1 MOL      0.156815
     59 H27        -2.8820    1.0610    2.9790 h1        1 MOL      0.156815
     60 N6         -5.7080    0.7350    3.3400 n         1 MOL     -0.557467
     61 C19        -5.8470    2.0290    2.6830 c3        1 MOL      0.195365
     62 C20        -6.7240    1.9440    1.4510 c         1 MOL      0.377971
     63 O10        -7.5460    1.0470    1.2840 o         1 MOL     -0.443676
     64 C21        -6.3460    3.0860    3.6910 c3        1 MOL     -0.245117
     65 C22        -7.6240    2.4840    4.4260 c         1 MOL      0.704331
     66 O11        -8.7560    2.3580    3.8670 o         1 MOL     -0.634806
     67 O12        -7.6190    2.2410    5.6650 o         1 MOL     -0.634806
     68 H28        -6.5300    0.1710    3.5310 hn        1 MOL      0.351661
     69 H29        -4.8830    2.4080    2.3270 h1        1 MOL     -0.003482
     70 H30        -6.6210    4.0040    3.1830 hc        1 MOL      0.044197
     71 H31        -5.5570    3.2890    4.4160 hc        1 MOL      0.044197
     72 N7         -6.5170    2.8320    0.4970 n         1 MOL     -0.348992
     73 C23        -7.2140    2.7390   -0.8210 c3        1 MOL     -0.135972
     74 C24        -6.6470    1.6840   -1.7290 c         1 MOL      0.357160
     75 O13        -7.2960    1.1420   -2.6220 o         1 MOL     -0.490694
     76 H32        -5.7670    3.4860    0.6990 hn        1 MOL      0.237879
     77 H33        -7.2000    3.7290   -1.2830 h1        1 MOL      0.146362
     78 H34        -8.2840    2.5440   -0.6860 h1        1 MOL      0.146362
     79 N8         -5.3040    1.4660   -1.7040 n         1 MOL     -0.147206
     80 C25        -4.5860    0.6100   -2.6190 c3        1 MOL      0.073029
     81 C26        -4.0120   -0.5490   -1.8250 c         1 MOL      0.218788
     82 O14        -2.9160   -0.5720   -1.2380 o         1 MOL     -0.316672
     83 C27        -3.5240    1.4140   -3.3850 c3        1 MOL      0.249416
     84 C28        -4.1240    2.6710   -4.0060 c3        1 MOL     -0.327063
     85 O15        -3.1610    0.6120   -4.5110 oh        1 MOL     -0.531092
     86 H35        -4.7010    1.9440   -1.0560 hn        1 MOL      0.128256
     87 H36        -5.2430    0.1110   -3.3300 h1        1 MOL      0.109659
     88 H37        -2.7200    1.6660   -2.6990 h1        1 MOL      0.096838
     89 H38        -2.2400    0.4060   -4.3410 ho        1 MOL      0.352275
     90 H39        -3.4190    3.2020   -4.6410 hc        1 MOL      0.085530
     91 H40        -4.9220    2.3550   -4.6780 hc        1 MOL      0.085530
     92 H41        -4.5150    3.3330   -3.2320 hc        1 MOL      0.085530
     93 N9         -4.8920   -1.5640   -1.5560 n         1 MOL     -0.393670
     94 C29        -4.7110   -2.8220   -0.8120 c3        1 MOL     -0.225521
     95 C30        -3.8030   -3.8120   -1.4450 c         1 MOL      0.260943
     96 O16        -4.0210   -5.0270   -1.3420 o         1 MOL     -0.512441
     97 C31        -6.0830   -3.3410   -0.3860 c3        1 MOL      0.282655
     98 C32        -6.9180   -3.8050   -1.6130 c3        1 MOL      0.109589
     99 C33        -6.8150   -2.2950    0.4210 c3        1 MOL     -0.526286
    100 C34        -8.1540   -4.4760   -1.1540 c3        1 MOL     -0.356751
    101 H42        -5.8480   -1.3660   -1.8180 hn        1 MOL      0.285878
    102 H43        -4.1670   -2.5350    0.0820 h1        1 MOL      0.188190
    103 H44        -5.8950   -4.1790    0.2840 hc        1 MOL      0.016452
    104 H45        -6.3490   -4.5150   -2.2160 hc        1 MOL      0.019104
    105 H46        -7.1620   -2.9260   -2.2130 hc        1 MOL      0.019104
    106 H47        -6.1240   -1.6450    0.9570 hc        1 MOL      0.147245
    107 H48        -7.4410   -1.7080   -0.2590 hc        1 MOL      0.147245
    108 H49        -7.4840   -2.8420    1.0930 hc        1 MOL      0.147245
    109 H50        -7.9690   -5.2450   -0.3970 hc        1 MOL      0.083743
    110 H51        -8.8430   -3.7590   -0.7040 hc        1 MOL      0.083743
    111 H52        -8.4350   -4.8390   -2.1480 hc        1 MOL      0.083743
    112 N10        -2.7190   -3.3550   -2.0580 n         1 MOL      0.139968
    113 C35        -1.6940   -4.0820   -2.8730 c3        1 MOL     -0.200413
    114 C36        -0.2330   -3.9600   -2.5010 c         1 MOL      0.401869
    115 O17         0.7060   -4.5320   -3.1490 o         1 MOL     -0.533550
    116 C37        -1.8460   -3.7760   -4.3600 c3        1 MOL      0.500419
    117 C38        -1.6180   -2.3050   -4.8580 c3        1 MOL     -0.355571
    118 O18        -3.0370   -4.3050   -4.8540 oh        1 MOL     -0.648396
    119 H53        -2.6050   -2.3490   -1.9890 hn        1 MOL      0.144872
    120 H54        -1.9710   -5.1350   -2.8100 h1        1 MOL      0.091616
    121 H55        -1.0330   -4.3360   -4.8340 h1        1 MOL     -0.035542
    122 H56        -2.7570   -5.1680   -5.1890 ho        1 MOL      0.386684
    123 H57        -1.9360   -1.6100   -4.0860 hc        1 MOL      0.093341
    124 H58        -0.5980   -2.1760   -5.2140 hc        1 MOL      0.093341
    125 H59        -2.3970   -2.0920   -5.5990 hc        1 MOL      0.093341
    126 N11         0.0600   -3.2270   -1.4070 n         1 MOL     -0.159001
    127 C39         1.4870   -2.7680   -1.1330 c3        1 MOL      0.153684
    128 C40         1.9790   -1.7190   -2.1620 c         1 MOL      0.432709
    129 O19         1.3470   -1.6030   -3.1910 o         1 MOL     -0.517438
    130 C41         2.4360   -3.8700   -0.9290 c3        1 MOL      0.253531
    131 C42         1.8950   -4.9630   -0.0060 c3        1 MOL     -0.218953
    132 O20         3.5920   -3.4200   -0.3060 oh        1 MOL     -0.559099
    133 H60        -0.6840   -2.8120   -0.8680 hn        1 MOL     -0.015326
    134 H61         1.4900   -2.3420   -0.1210 h1        1 MOL      0.038525
    135 H62         2.7520   -4.3230   -1.8700 h1        1 MOL      0.022416
    136 H63         4.1460   -4.2050   -0.3050 ho        1 MOL      0.395224
    137 H64         2.7350   -5.6180    0.2700 hc        1 MOL      0.043138
    138 H65         1.5120   -4.5550    0.9290 hc        1 MOL      0.043138
    139 H66         1.1860   -5.5900   -0.5620 hc        1 MOL      0.043138
    140 N12         3.1420   -1.1560   -1.9530 n         1 MOL     -0.174185
    141 C43         3.7920   -0.2880   -2.9090 c3        1 MOL      0.169259
    142 C44         4.2650    1.0700   -2.3910 c         1 MOL      0.598388
    143 O21         4.7530    1.9570   -3.0680 o         1 MOL     -0.639123
    144 C45         4.8830   -1.0260   -3.6600 c3        1 MOL     -0.329490
    145 C46         5.8720   -1.7250   -2.7110 c3        1 MOL      0.473221
    146 C47         6.8800   -2.5020   -3.5380 c3        1 MOL     -0.316331
    147 C48         7.7590   -3.5650   -2.7450 c3        1 MOL      0.145607
    148 N13         8.7180   -2.7890   -1.8620 n4        1 MOL     -0.314365
    149 H67         3.6270   -1.3170   -1.0780 hn        1 MOL     -0.006813
    150 H68         3.0150    0.0140   -3.6100 h1        1 MOL      0.049431
    151 H69         5.3860   -0.2870   -4.2720 hc        1 MOL      0.080194
    152 H70         4.4020   -1.8450   -4.1890 hc        1 MOL      0.080194
    153 H71         5.2970   -2.3600   -2.0330 hc        1 MOL     -0.114402
    154 H72         6.3970   -1.0660   -2.0280 hc        1 MOL     -0.114402
    155 H73         7.5150   -1.8040   -4.0860 hc        1 MOL      0.081278
    156 H74         6.3250   -3.0560   -4.2930 hc        1 MOL      0.081278
    157 H75         8.3590   -4.2080   -3.3860 hx        1 MOL      0.045602
    158 H76         7.1940   -4.2400   -2.1090 hx        1 MOL      0.045602
    159 H77         8.2860   -2.3760   -1.0470 hn        1 MOL      0.294409
    160 H78         9.4530   -3.3580   -1.4570 hn        1 MOL      0.294409
    161 H79         9.1280   -2.0720   -2.4380 hn        1 MOL      0.294409
    162 N14         4.0250    1.2360   -1.1040 n         1 MOL     -0.213576
    163 C49         4.3430    2.5320   -0.4910 c3        1 MOL     -0.239047
    164 C50         5.8340    2.9450   -0.3390 c         1 MOL      0.516600
    165 O22         6.5960    2.2050    0.2490 o         1 MOL     -0.494654
    166 C51         3.5360    2.6640    0.7860 c3        1 MOL      0.416747
    167 C52         3.4760    4.0950    1.3990 c3        1 MOL     -0.212823
    168 C53         3.1180    5.0900    0.3660 c         1 MOL      0.211099
    169 O23         3.8950    6.0000    0.1080 o         1 MOL     -0.554484
    170 O24         2.0230    4.8550   -0.1750 o         1 MOL     -0.554484
    171 H80         3.4860    0.5440   -0.6060 hn        1 MOL      0.078861
    172 H81         3.9120    3.1890   -1.2490 h1        1 MOL      0.174576
    173 H82         3.8440    1.9660    1.5680 hc        1 MOL     -0.098383
    174 H83         2.4900    2.4540    0.5980 hc        1 MOL     -0.098383
    175 H84         4.4110    4.3980    1.8570 hc        1 MOL      0.097351
    176 H85         2.7380    4.0480    2.2060 hc        1 MOL      0.097351
    177 N15         6.2600    4.1830   -0.7170 n         1 MOL     -0.306041
    178 C54         7.6080    4.7030   -0.6190 c3        1 MOL     -0.210621
    179 H86         7.7990    5.0270    0.4040 h1        1 MOL      0.095143
    180 H87         8.3190    3.9230   -0.8910 h1        1 MOL      0.095143
    181 H88         7.7210    5.5500   -1.2960 h1        1 MOL      0.095143
    182 H89         5.6850    4.8600   -1.2080 hn        1 MOL      0.331224
    183 Ca1        -0.3670    5.3460   -0.6160 Ca        1 MOL      1.636062
    184 O25        -1.9060    4.4140   -2.6050 oh        1 MOL     -0.822721
    185 H90        -2.5180    3.6780   -2.6720 ho        1 MOL      0.402503
    186 H91        -1.4330    4.4170   -3.4370 ho        1 MOL      0.402503
    187 O26         1.7610    7.3860   -1.4930 oh        1 MOL     -0.822721
    188 H92         1.4320    8.1410   -1.0130 ho        1 MOL      0.402503
    189 H93         1.9610    6.7330   -0.8130 ho        1 MOL      0.402503
    190 O27         0.9860    4.2780   -2.8990 oh        1 MOL     -0.822721
    191 H94         1.8700    4.2400   -3.2640 ho        1 MOL      0.402503
    192 H95         0.8540    3.3970   -2.5270 ho        1 MOL      0.402503
    193 O28        -1.9970    7.2010   -1.7490 oh        1 MOL     -0.822721
    194 H96        -2.0230    8.1050   -2.0500 ho        1 MOL      0.402503
    195 H97        -2.3320    6.6920   -2.4880 ho        1 MOL      0.402503
@<TRIPOS>BOND
     1    1    2 1   
     2    1    4 1   
     3    1    5 1   
     4    1    6 1   
     5    2    3 2   
     6    2    7 1   
     7    7    8 1   
     8    7   15 1   
     9    8    9 1   
    10    8   11 1   
    11    8   16 1   
    12    9   10 2   
    13    9   19 1   
    14   11   12 1   
    15   11   17 1   
    16   11   18 1   
    17   12   13 1   
    18   12   14 1   
    19   19   20 1   
    20   19   28 1   
    21   20   21 1   
    22   20   23 1   
    23   20   29 1   
    24   21   22 2   
    25   21   41 1   
    26   23   24 1   
    27   23   30 1   
    28   23   31 1   
    29   24   25 1   
    30   24   32 1   
    31   24   33 1   
    32   25   26 1   
    33   25   34 1   
    34   25   35 1   
    35   26   27 1   
    36   26   36 1   
    37   26   37 1   
    38   27   38 1   
    39   27   39 1   
    40   27   40 1   
    41   41   42 1   
    42   41   49 1   
    43   42   43 1   
    44   42   45 1   
    45   42   50 1   
    46   43   44 2   
    47   43   53 1   
    48   45   46 1   
    49   45   51 1   
    50   45   52 1   
    51   46   47 1   
    52   46   48 1   
    53   53   54 1   
    54   53   57 1   
    55   54   55 1   
    56   54   58 1   
    57   54   59 1   
    58   55   56 2   
    59   55   60 1   
    60   60   61 1   
    61   60   68 1   
    62   61   62 1   
    63   61   64 1   
    64   61   69 1   
    65   62   63 2   
    66   62   72 1   
    67   64   65 1   
    68   64   70 1   
    69   64   71 1   
    70   65   66 1   
    71   65   67 1   
    72   72   73 1   
    73   72   76 1   
    74   73   74 1   
    75   73   77 1   
    76   73   78 1   
    77   74   75 2   
    78   74   79 1   
    79   79   80 1   
    80   79   86 1   
    81   80   81 1   
    82   80   83 1   
    83   80   87 1   
    84   81   82 2   
    85   81   93 1   
    86   83   84 1   
    87   83   85 1   
    88   83   88 1   
    89   84   90 1   
    90   84   91 1   
    91   84   92 1   
    92   85   89 1   
    93   93   94 1   
    94   93  101 1   
    95   94   95 1   
    96   94   97 1   
    97   94  102 1   
    98   95   96 2   
    99   95  112 1   
   100   97   98 1   
   101   97   99 1   
   102   97  103 1   
   103   98  100 1   
   104   98  104 1   
   105   98  105 1   
   106   99  106 1   
   107   99  107 1   
   108   99  108 1   
   109  100  109 1   
   110  100  110 1   
   111  100  111 1   
   112  112  113 1   
   113  112  119 1   
   114  113  114 1   
   115  113  116 1   
   116  113  120 1   
   117  114  115 2   
   118  114  126 1   
   119  116  117 1   
   120  116  118 1   
   121  116  121 1   
   122  117  123 1   
   123  117  124 1   
   124  117  125 1   
   125  118  122 1   
   126  126  127 1   
   127  126  133 1   
   128  127  128 1   
   129  127  130 1   
   130  127  134 1   
   131  128  129 2   
   132  128  140 1   
   133  130  131 1   
   134  130  132 1   
   135  130  135 1   
   136  131  137 1   
   137  131  138 1   
   138  131  139 1   
   139  132  136 1   
   140  140  141 1   
   141  140  149 1   
   142  141  142 1   
   143  141  144 1   
   144  141  150 1   
   145  142  143 2   
   146  142  162 1   
   147  144  145 1   
   148  144  151 1   
   149  144  152 1   
   150  145  146 1   
   151  145  153 1   
   152  145  154 1   
   153  146  147 1   
   154  146  155 1   
   155  146  156 1   
   156  147  148 1   
   157  147  157 1   
   158  147  158 1   
   159  148  159 1   
   160  148  160 1   
   161  148  161 1   
   162  162  163 1   
   163  162  171 1   
   164  163  164 1   
   165  163  166 1   
   166  163  172 1   
   167  164  165 2   
   168  164  177 1   
   169  166  167 1   
   170  166  173 1   
   171  166  174 1   
   172  167  168 1   
   173  167  175 1   
   174  167  176 1   
   175  168  169 1   
   176  168  170 1   
   177  177  178 1   
   178  177  182 1   
   179  178  179 1   
   180  178  180 1   
   181  178  181 1   
   182  184  185 1   
   183  184  186 1   
   184  187  188 1   
   185  187  189 1   
   186  190  191 1   
   187  190  192 1   
   188  193  194 1   
   189  193  195 1   
@<TRIPOS>SUBSTRUCTURE
     1 MOL         1 TEMP              0 ****  ****    0 ROOT
