@<TRIPOS>MOLECULE
MOL
  186   183     1     0     0
SMALL
resp


@<TRIPOS>ATOM
      1 C1          9.8210    0.6740    1.6850 c3        1 MOL     -0.289883
      2 C2          8.5140    0.3810    0.8870 c         1 MOL      0.781862
      3 O1          7.4400    0.3220    1.5030 o         1 MOL     -0.707006
      4 H1         10.6790    0.3010    1.1260 hc        1 MOL      0.065998
      5 H2          9.9240    1.7490    1.8320 hc        1 MOL      0.065998
      6 H3          9.7750    0.1770    2.6540 hc        1 MOL      0.065998
      7 N1          8.5850    0.1210   -0.3820 n         1 MOL     -0.583875
      8 C3          7.4980   -0.0940   -1.3460 c3        1 MOL     -0.045927
      9 C4          6.9150   -1.5320   -1.2140 c         1 MOL      0.512162
     10 O2          6.7260   -2.1270   -2.2470 o         1 MOL     -0.450589
     11 C5          7.9420    0.3090   -2.7990 c3        1 MOL     -0.132281
     12 C6          9.3360   -0.2940   -3.2920 c         1 MOL      0.661347
     13 O3          9.6920    0.2200   -4.3760 o         1 MOL     -0.641325
     14 O4         10.0780   -0.9360   -2.5550 o         1 MOL     -0.641325
     15 H4          9.4980    0.2270   -0.7820 hn        1 MOL      0.317269
     16 H5          6.7310    0.6400   -1.1010 h1        1 MOL      0.131108
     17 H6          7.9600    1.4080   -2.8470 hc        1 MOL      0.067238
     18 H7          7.1820    0.0440   -3.5290 hc        1 MOL      0.067238
     19 N2          6.5660   -2.0210    0.0030 n         1 MOL     -0.471564
     20 C7          6.0300   -3.4220    0.1310 c3        1 MOL      0.265068
     21 C8          4.5960   -3.5330   -0.4080 c         1 MOL      0.286582
     22 O5          4.3730   -4.4400   -1.1970 o         1 MOL     -0.503236
     23 C9          6.2000   -4.0530    1.5170 c3        1 MOL      0.008561
     24 C10         7.5500   -3.9180    2.2380 c3        1 MOL     -0.048655
     25 C11         8.7260   -4.7160    1.6920 c3        1 MOL     -0.042951
     26 C12        10.0620   -4.5980    2.4150 c3        1 MOL     -0.147552
     27 N3         10.0420   -4.8860    3.9060 n4        1 MOL     -0.305744
     28 H8          6.8590   -1.4620    0.7870 hn        1 MOL      0.208038
     29 H9          6.6050   -4.0570   -0.5330 h1        1 MOL      0.034314
     30 H10         5.9970   -5.1130    1.3980 hc        1 MOL     -0.007898
     31 H11         5.4640   -3.5380    2.1350 hc        1 MOL     -0.007898
     32 H12         7.3860   -4.1130    3.3000 hc        1 MOL      0.014839
     33 H13         7.9320   -2.9080    2.1520 hc        1 MOL      0.014839
     34 H14         8.8820   -4.6940    0.6110 hc        1 MOL      0.070450
     35 H15         8.2890   -5.7140    1.7050 hc        1 MOL      0.070450
     36 H16        10.2830   -3.5590    2.2100 hx        1 MOL      0.142070
     37 H17        10.6530   -5.3160    1.8420 hx        1 MOL      0.142070
     38 H18        10.9700   -5.1940    4.1410 hn        1 MOL      0.302591
     39 H19         9.7240   -4.0530    4.3810 hn        1 MOL      0.302591
     40 H20         9.3040   -5.5390    4.1010 hn        1 MOL      0.302591
     41 N4          3.6640   -2.6180   -0.0930 n         1 MOL      0.031397
     42 C13         3.5350   -1.6310    0.9460 c3        1 MOL     -0.544428
     43 C14         3.4000   -0.2780    0.2570 c         1 MOL      0.689315
     44 O6          2.9120   -0.2210   -0.8750 o         1 MOL     -0.587227
     45 C15         2.3360   -2.0180    1.7390 c3        1 MOL     -0.249067
     46 C16         1.0710   -2.2740    1.0190 c         1 MOL      0.819710
     47 O7          0.8990   -1.9500   -0.1510 o         1 MOL     -0.715255
     48 O8          0.1790   -2.9480    1.6020 o         1 MOL     -0.715255
     49 H21         2.8200   -2.7080   -0.6240 hn        1 MOL      0.215182
     50 H22         4.4550   -1.6500    1.5360 h1        1 MOL      0.223733
     51 H23         2.1040   -1.2530    2.4800 hc        1 MOL      0.108554
     52 H24         2.5760   -2.9540    2.2550 hc        1 MOL      0.108554
     53 N5          3.7580    0.8300    0.9440 n         1 MOL     -0.396610
     54 C17         3.8130    2.2240    0.3660 c3        1 MOL      0.017297
     55 C18         2.5600    2.5410   -0.5410 c         1 MOL      0.584810
     56 O9          1.4180    2.1000   -0.3980 o         1 MOL     -0.735274
     57 H25         4.0600    0.7400    1.8940 hn        1 MOL      0.313191
     58 H26         4.6530    2.4290   -0.3010 h1        1 MOL      0.060951
     59 H27         3.6990    2.9870    1.1270 h1        1 MOL      0.060951
     60 N6          2.7560    3.4020   -1.5710 n         1 MOL     -0.522369
     61 C19         1.7080    4.1930   -2.2230 c3        1 MOL      0.394501
     62 C20         1.9970    5.7130   -2.1130 c         1 MOL      0.297827
     63 O10         3.2120    6.0880   -2.2150 o         1 MOL     -0.513039
     64 C21         1.4980    3.7550   -3.7040 c3        1 MOL     -0.115973
     65 C22         1.6380    2.2750   -4.0930 c         1 MOL      0.647811
     66 O11         2.1990    1.9850   -5.1610 o         1 MOL     -0.640234
     67 O12         1.1000    1.4250   -3.4210 o         1 MOL     -0.640234
     68 H28         3.6670    3.8120   -1.6510 hn        1 MOL      0.290161
     69 H29         0.7420    3.9720   -1.7630 h1        1 MOL      0.040328
     70 H30         2.2210    4.3140   -4.2880 hc        1 MOL      0.006837
     71 H31         0.4660    4.0230   -3.9260 hc        1 MOL      0.006837
     72 N7          1.1110    6.6580   -1.7490 n         1 MOL     -0.355004
     73 C23        -0.3630    6.4620   -1.6440 c3        1 MOL     -0.204636
     74 C24        -0.9880    6.2210   -0.2760 c         1 MOL      0.646225
     75 O13        -0.5040    6.6510    0.7220 o         1 MOL     -0.533507
     76 H32         1.4550    7.5930   -1.5840 hn        1 MOL      0.330096
     77 H33        -0.7360    5.6540   -2.2720 h1        1 MOL      0.096616
     78 H34        -0.7450    7.4190   -1.9940 h1        1 MOL      0.096616
     79 N8         -2.0190    5.4100   -0.2470 n         1 MOL     -0.453023
     80 C25        -2.9320    5.2050    0.8960 c3        1 MOL     -0.070002
     81 C26        -2.5610    4.0290    1.7560 c         1 MOL      0.331792
     82 O14        -3.3670    3.6890    2.7020 o         1 MOL     -0.581625
     83 C27        -4.3550    5.1820    0.3870 c3        1 MOL      0.343188
     84 C28        -4.6550    4.0020   -0.6110 c3        1 MOL     -0.314291
     85 O15        -4.5670    6.3730   -0.2150 oh        1 MOL     -0.655431
     86 H35        -2.3620    5.0420   -1.1220 hn        1 MOL      0.287345
     87 H36        -2.8070    6.0930    1.5210 h1        1 MOL      0.157682
     88 H37        -5.0800    5.1700    1.2040 h1        1 MOL      0.024265
     89 H38        -5.4830    6.5830   -0.3670 ho        1 MOL      0.422817
     90 H39        -4.1340    4.0790   -1.5700 hc        1 MOL      0.079812
     91 H40        -4.6420    3.0640   -0.0650 hc        1 MOL      0.079812
     92 H41        -5.7260    4.0350   -0.7920 hc        1 MOL      0.079812
     93 N9         -1.4120    3.4390    1.6700 n         1 MOL     -0.023211
     94 C29        -0.9820    2.4460    2.6110 c3        1 MOL      0.041860
     95 C30        -1.2210    1.0680    2.1790 c         1 MOL      0.050154
     96 O16        -0.7380    0.5850    1.1250 o         1 MOL     -0.316172
     97 C31         0.5230    2.5230    2.8750 c3        1 MOL      0.425328
     98 C32         0.9950    4.0170    3.0860 c3        1 MOL     -0.142076
     99 C33         0.9900    1.5390    4.0830 c3        1 MOL     -0.343047
    100 C34         0.3220    4.6710    4.3220 c3        1 MOL     -0.208518
    101 H42        -0.8280    3.7150    0.8900 hn        1 MOL      0.196534
    102 H43        -1.5200    2.6600    3.5280 h1        1 MOL      0.016088
    103 H44         1.0610    2.1590    2.0070 hc        1 MOL     -0.164342
    104 H45         0.6900    4.6310    2.2430 hc        1 MOL      0.045505
    105 H46         2.0640    4.0850    3.3060 hc        1 MOL      0.045505
    106 H47         0.3090    1.7210    4.9010 hc        1 MOL      0.080832
    107 H48         0.8610    0.5380    3.6750 hc        1 MOL      0.080832
    108 H49         2.0430    1.6760    4.3190 hc        1 MOL      0.080832
    109 H50         0.3570    3.9830    5.1630 hc        1 MOL      0.052885
    110 H51         0.6990    5.6680    4.5150 hc        1 MOL      0.052885
    111 H52        -0.6960    4.9260    4.0250 hc        1 MOL      0.052885
    112 N10        -1.9870    0.3600    3.0160 n         1 MOL      0.122378
    113 C35        -2.4220   -1.0770    2.8700 c3        1 MOL     -0.910431
    114 C36        -3.9800   -1.2270    2.6080 c         1 MOL      0.656652
    115 O17        -4.4580   -2.3280    2.4080 o         1 MOL     -0.562932
    116 C37        -1.8540   -2.0020    3.9880 c3        1 MOL      0.431668
    117 C38        -2.1610   -1.3360    5.3630 c3        1 MOL     -0.086561
    118 O18        -0.4260   -2.1200    3.9800 oh        1 MOL     -0.670894
    119 H53        -2.1870    0.8740    3.8590 hn        1 MOL      0.211903
    120 H54        -1.8990   -1.2790    1.9380 h1        1 MOL      0.435170
    121 H55        -2.3280   -2.9850    4.0140 h1        1 MOL      0.039863
    122 H56        -0.1250   -2.5230    3.1550 ho        1 MOL      0.388157
    123 H57        -2.1590   -2.0360    6.1950 hc        1 MOL      0.021148
    124 H58        -1.4480   -0.5330    5.5310 hc        1 MOL      0.021148
    125 H59        -3.1500   -0.9050    5.4980 hc        1 MOL      0.021148
    126 N11        -4.7810   -0.1640    2.5990 n         1 MOL     -0.175101
    127 C39        -6.2480    0.0010    2.2150 c3        1 MOL     -0.273377
    128 C40        -6.5300   -0.8430    0.8930 c         1 MOL      0.444839
    129 O19        -6.1470   -0.3390   -0.2250 o         1 MOL     -0.452113
    130 C41        -6.5730    1.4780    1.9760 c3        1 MOL      0.359609
    131 C42        -8.0040    1.6860    1.6330 c3        1 MOL     -0.324205
    132 O20        -6.2750    2.1800    3.2020 oh        1 MOL     -0.570753
    133 H60        -4.3790    0.7240    2.8660 hn        1 MOL      0.189085
    134 H61        -6.8770   -0.3320    3.0530 h1        1 MOL      0.129125
    135 H62        -5.9460    1.8830    1.1930 h1        1 MOL      0.032802
    136 H63        -6.5590    3.0760    2.9890 ho        1 MOL      0.371601
    137 H64        -8.1720    1.5810    0.5630 hc        1 MOL      0.084233
    138 H65        -8.6730    0.9540    2.0830 hc        1 MOL      0.084233
    139 H66        -8.3630    2.6890    1.8830 hc        1 MOL      0.084233
    140 N12        -7.0160   -2.0780    0.9800 n         1 MOL     -0.367785
    141 C43        -7.3780   -2.9260   -0.1840 c3        1 MOL      0.241763
    142 C44        -6.3250   -2.9700   -1.3410 c         1 MOL      0.391928
    143 O21        -6.6760   -2.7540   -2.4900 o         1 MOL     -0.457723
    144 C45        -8.7310   -2.5490   -0.6680 c3        1 MOL     -0.449943
    145 C46        -9.3820   -3.7430   -1.4660 c3        1 MOL      0.352069
    146 C47       -10.6490   -3.1950   -2.0580 c3        1 MOL     -0.300517
    147 C48       -11.3310   -4.3010   -2.9090 c3        1 MOL     -0.084008
    148 N13       -12.1550   -5.2480   -2.0540 n4        1 MOL     -0.299193
    149 H67        -7.1220   -2.4730    1.9070 hn        1 MOL      0.271194
    150 H68        -7.4470   -3.9150    0.2660 h1        1 MOL      0.014468
    151 H69        -8.6890   -1.6520   -1.2780 hc        1 MOL      0.124543
    152 H70        -9.2810   -2.3660    0.2510 hc        1 MOL      0.124543
    153 H71        -9.5610   -4.5470   -0.7570 hc        1 MOL     -0.035478
    154 H72        -8.7620   -4.1780   -2.2480 hc        1 MOL     -0.035478
    155 H73       -10.3340   -2.4980   -2.8240 hc        1 MOL      0.123937
    156 H74       -11.3250   -2.7340   -1.3250 hc        1 MOL      0.123937
    157 H75       -10.5960   -4.8440   -3.5090 hx        1 MOL      0.140727
    158 H76       -11.9810   -3.8160   -3.6330 hx        1 MOL      0.140727
    159 H77       -12.4810   -6.0260   -2.6080 hn        1 MOL      0.252018
    160 H78       -11.7350   -5.5550   -1.1940 hn        1 MOL      0.252018
    161 H79       -13.0160   -4.7660   -1.8240 hn        1 MOL      0.252018
    162 N14        -5.0340   -3.1360   -0.9690 n         1 MOL     -0.674849
    163 C49        -3.8020   -2.6860   -1.7330 c3        1 MOL      0.444162
    164 C50        -2.5620   -2.4320   -0.8870 c         1 MOL      0.302862
    165 O22        -1.9670   -1.3140   -0.8770 o         1 MOL     -0.683125
    166 C51        -3.4130   -3.5880   -2.9330 c3        1 MOL      0.014432
    167 C52        -1.9970   -3.3350   -3.5590 c3        1 MOL     -0.220018
    168 C53        -1.6150   -1.7890   -3.7760 c         1 MOL      0.815301
    169 O23        -2.4070   -1.0680   -4.3800 o         1 MOL     -0.717602
    170 O24        -0.5340   -1.3740   -3.4100 o         1 MOL     -0.717602
    171 H80        -4.9330   -3.4170   -0.0070 hn        1 MOL      0.319092
    172 H81        -4.0400   -1.6980   -2.1150 h1        1 MOL      0.056015
    173 H82        -4.1790   -3.4520   -3.7050 hc        1 MOL      0.002811
    174 H83        -3.3900   -4.6270   -2.6150 hc        1 MOL      0.002811
    175 H84        -1.9220   -3.7990   -4.5400 hc        1 MOL      0.029771
    176 H85        -1.3510   -3.7340   -2.7790 hc        1 MOL      0.029771
    177 N15        -2.1710   -3.4190   -0.0580 n         1 MOL     -0.051998
    178 C54        -2.5470   -4.8650    0.0090 c3        1 MOL     -0.255905
    179 H86        -1.6430   -5.4720    0.0520 h1        1 MOL      0.088643
    180 H87        -3.1470   -5.0440    0.9000 h1        1 MOL      0.088643
    181 H88        -3.1220   -5.1330   -0.8770 h1        1 MOL      0.088643
    182 H89        -1.3470   -3.2100    0.4840 hn        1 MOL      0.238196
    183 Ca1         0.2240    0.1230   -1.4560 Ca        1 MOL      1.731564
    184 O25        -1.6910    2.1060   -1.8730 oh        1 MOL     -1.001103
    185 H90        -2.5750    1.8020   -1.6750 ho        1 MOL      0.470614
    186 H91        -1.8120    2.8030   -2.5150 ho        1 MOL      0.470614
@<TRIPOS>BOND
     1    1    2 1   
     2    1    4 1   
     3    1    5 1   
     4    1    6 1   
     5    2    3 2   
     6    2    7 1   
     7    7    8 1   
     8    7   15 1   
     9    8    9 1   
    10    8   11 1   
    11    8   16 1   
    12    9   10 2   
    13    9   19 1   
    14   11   12 1   
    15   11   17 1   
    16   11   18 1   
    17   12   13 1   
    18   12   14 1   
    19   19   20 1   
    20   19   28 1   
    21   20   21 1   
    22   20   23 1   
    23   20   29 1   
    24   21   22 2   
    25   21   41 1   
    26   23   24 1   
    27   23   30 1   
    28   23   31 1   
    29   24   25 1   
    30   24   32 1   
    31   24   33 1   
    32   25   26 1   
    33   25   34 1   
    34   25   35 1   
    35   26   27 1   
    36   26   36 1   
    37   26   37 1   
    38   27   38 1   
    39   27   39 1   
    40   27   40 1   
    41   41   42 1   
    42   41   49 1   
    43   42   43 1   
    44   42   45 1   
    45   42   50 1   
    46   43   44 2   
    47   43   53 1   
    48   45   46 1   
    49   45   51 1   
    50   45   52 1   
    51   46   47 1   
    52   46   48 1   
    53   53   54 1   
    54   53   57 1   
    55   54   55 1   
    56   54   58 1   
    57   54   59 1   
    58   55   56 2   
    59   55   60 1   
    60   60   61 1   
    61   60   68 1   
    62   61   62 1   
    63   61   64 1   
    64   61   69 1   
    65   62   63 2   
    66   62   72 1   
    67   64   65 1   
    68   64   70 1   
    69   64   71 1   
    70   65   66 1   
    71   65   67 1   
    72   72   73 1   
    73   72   76 1   
    74   73   74 1   
    75   73   77 1   
    76   73   78 1   
    77   74   75 2   
    78   74   79 1   
    79   79   80 1   
    80   79   86 1   
    81   80   81 1   
    82   80   83 1   
    83   80   87 1   
    84   81   82 2   
    85   81   93 1   
    86   83   84 1   
    87   83   85 1   
    88   83   88 1   
    89   84   90 1   
    90   84   91 1   
    91   84   92 1   
    92   85   89 1   
    93   93   94 1   
    94   93  101 1   
    95   94   95 1   
    96   94   97 1   
    97   94  102 1   
    98   95   96 2   
    99   95  112 1   
   100   97   98 1   
   101   97   99 1   
   102   97  103 1   
   103   98  100 1   
   104   98  104 1   
   105   98  105 1   
   106   99  106 1   
   107   99  107 1   
   108   99  108 1   
   109  100  109 1   
   110  100  110 1   
   111  100  111 1   
   112  112  113 1   
   113  112  119 1   
   114  113  114 1   
   115  113  116 1   
   116  113  120 1   
   117  114  115 2   
   118  114  126 1   
   119  116  117 1   
   120  116  118 1   
   121  116  121 1   
   122  117  123 1   
   123  117  124 1   
   124  117  125 1   
   125  118  122 1   
   126  126  127 1   
   127  126  133 1   
   128  127  128 1   
   129  127  130 1   
   130  127  134 1   
   131  128  129 2   
   132  128  140 1   
   133  130  131 1   
   134  130  132 1   
   135  130  135 1   
   136  131  137 1   
   137  131  138 1   
   138  131  139 1   
   139  132  136 1   
   140  140  141 1   
   141  140  149 1   
   142  141  142 1   
   143  141  144 1   
   144  141  150 1   
   145  142  143 2   
   146  142  162 1   
   147  144  145 1   
   148  144  151 1   
   149  144  152 1   
   150  145  146 1   
   151  145  153 1   
   152  145  154 1   
   153  146  147 1   
   154  146  155 1   
   155  146  156 1   
   156  147  148 1   
   157  147  157 1   
   158  147  158 1   
   159  148  159 1   
   160  148  160 1   
   161  148  161 1   
   162  162  163 1   
   163  162  171 1   
   164  163  164 1   
   165  163  166 1   
   166  163  172 1   
   167  164  165 2   
   168  164  177 1   
   169  166  167 1   
   170  166  173 1   
   171  166  174 1   
   172  167  168 1   
   173  167  175 1   
   174  167  176 1   
   175  168  169 1   
   176  168  170 1   
   177  177  178 1   
   178  177  182 1   
   179  178  179 1   
   180  178  180 1   
   181  178  181 1   
   182  184  185 1   
   183  184  186 1   
@<TRIPOS>SUBSTRUCTURE
     1 MOL         1 TEMP              0 ****  ****    0 ROOT
