@<TRIPOS>MOLECULE
MOL
  178   175     1     0     0
SMALL
resp


@<TRIPOS>ATOM
      1 C1         -4.0810   -1.9320   -2.8640 c3        1 MOL     -0.327674
      2 C2         -5.3710   -1.1780   -2.6630 c         1 MOL      0.652007
      3 O1         -5.3230    0.0180   -2.4270 o         1 MOL     -0.552182
      4 H1         -3.3710   -1.6510   -2.0850 hc        1 MOL      0.073107
      5 H2         -4.2740   -3.0040   -2.8110 hc        1 MOL      0.073107
      6 H3         -3.6640   -1.6850   -3.8400 hc        1 MOL      0.073107
      7 N1         -6.4590   -1.9860   -2.7670 n         1 MOL     -0.439138
      8 C3         -7.8800   -1.4850   -2.8700 c3        1 MOL      0.027340
      9 C4         -8.4550   -0.9840   -1.5100 c         1 MOL      0.430990
     10 O2         -8.8750   -1.7400   -0.6560 o         1 MOL     -0.483828
     11 C5         -8.7380   -2.5790   -3.4870 c3        1 MOL     -0.241199
     12 C6        -10.2270   -2.1690   -3.7830 c         1 MOL      0.768070
     13 O3        -10.4360   -1.0900   -4.3830 o         1 MOL     -0.734404
     14 O4        -11.1280   -3.0210   -3.6270 o         1 MOL     -0.734404
     15 H4         -6.3500   -2.9890   -2.8690 hn        1 MOL      0.279880
     16 H5         -7.8410   -0.6600   -3.5690 h1        1 MOL      0.057150
     17 H6         -8.6920   -3.3930   -2.7660 hc        1 MOL      0.034250
     18 H7         -8.2950   -2.9970   -4.4010 hc        1 MOL      0.034250
     19 N2         -8.4260    0.3660   -1.3480 n         1 MOL     -0.430044
     20 C7         -8.8330    1.0710   -0.0770 c3        1 MOL      0.455594
     21 C8         -7.6700    1.0450    0.9130 c         1 MOL      0.412189
     22 O5         -7.1460    2.0110    1.4200 o         1 MOL     -0.540882
     23 C9         -9.4570    2.4480   -0.4120 c3        1 MOL     -0.440897
     24 H8         -8.2950    0.8550   -2.2270 hn        1 MOL      0.254238
     25 H9         -9.6290    0.5170    0.4160 h1        1 MOL     -0.023489
     26 H10        -8.6330    3.0030   -0.8540 hc        1 MOL      0.104866
     27 H11       -10.2870    2.2440   -1.0930 hc        1 MOL      0.104866
     28 H12        -9.7250    3.0280    0.4880 hc        1 MOL      0.104866
     29 N3         -7.0780   -0.1670    0.9400 n         1 MOL     -0.488745
     30 C10        -5.8110   -0.4050    1.5820 c3        1 MOL      0.227466
     31 C11        -5.6940   -0.0980    3.1030 c         1 MOL      0.484677
     32 O6         -6.6010   -0.4780    3.9000 o         1 MOL     -0.536467
     33 C12        -5.5590   -1.9400    1.3580 c3        1 MOL     -0.313983
     34 C13        -4.1570   -2.3860    1.8250 c         1 MOL      0.854891
     35 O7         -3.9530   -3.5570    2.2220 o         1 MOL     -0.806492
     36 O8         -3.1780   -1.6590    1.5920 o         1 MOL     -0.806492
     37 H13        -7.5360   -0.9810    0.5710 hn        1 MOL      0.257357
     38 H14        -5.1000    0.1840    1.0080 h1        1 MOL      0.077777
     39 H15        -5.4860   -2.0460    0.2700 hc        1 MOL      0.068462
     40 H16        -6.3650   -2.5560    1.7550 hc        1 MOL      0.068462
     41 N4         -4.4990    0.4540    3.4290 n         1 MOL     -0.202690
     42 C14        -4.1010    0.9710    4.7610 c3        1 MOL     -0.293501
     43 C15        -2.7190    1.6440    4.7370 c         1 MOL      0.562785
     44 O9         -2.0620    1.7410    5.7710 o         1 MOL     -0.531694
     45 H17        -3.8720    0.7100    2.6700 hn        1 MOL      0.180703
     46 H18        -4.0180    0.1970    5.5170 h1        1 MOL      0.127527
     47 H19        -4.8720    1.6650    5.0970 h1        1 MOL      0.127527
     48 N5         -2.1250    2.0430    3.6030 n         1 MOL     -0.292785
     49 C16        -0.9250    2.8020    3.4530 c3        1 MOL     -0.068910
     50 C17        -1.1280    4.0150    2.4790 c         1 MOL      0.401181
     51 O10        -1.7180    3.8850    1.3860 o         1 MOL     -0.487099
     52 C18         0.1890    1.8620    2.9640 c3        1 MOL     -0.099153
     53 C19         0.5340    0.7370    4.0430 c         1 MOL      0.453630
     54 N6          0.2530   -0.4640    3.6750 n         1 MOL     -0.453948
     55 O11         1.0190    0.9870    5.1750 o         1 MOL     -0.565393
     56 H20        -2.5990    1.8330    2.7380 hn        1 MOL      0.238464
     57 H21        -0.6860    3.2240    4.4240 h1        1 MOL      0.082880
     58 H22         1.0960    2.4320    2.7780 hc        1 MOL      0.083630
     59 H23        -0.0370    1.3970    2.0000 hc        1 MOL      0.083630
     60 H24         0.0230   -0.6540    2.7080 hn        1 MOL      0.249922
     61 H25         0.4760   -1.1800    4.3540 hn        1 MOL      0.249922
     62 N7         -0.6240    5.1670    2.8570 n         1 MOL     -0.295901
     63 C20        -0.5320    6.3690    2.0070 c3        1 MOL     -0.264491
     64 C21         0.8280    6.4450    1.1810 c         1 MOL      0.663176
     65 O12         1.8570    5.8770    1.5500 o         1 MOL     -0.515734
     66 H26        -0.0840    5.1010    3.7130 hn        1 MOL      0.274323
     67 H27        -0.6120    7.2090    2.7100 h1        1 MOL      0.137227
     68 H28        -1.4100    6.3300    1.3630 h1        1 MOL      0.137227
     69 N8          0.8110    7.1610    0.0650 n         1 MOL     -0.548546
     70 C22         2.0590    7.2950   -0.7800 c3        1 MOL     -0.106409
     71 C23         2.3650    5.9380   -1.4920 c         1 MOL      0.458805
     72 O13         3.4970    5.8470   -1.9680 o         1 MOL     -0.567638
     73 C24         1.9840    8.3350   -1.9320 c3        1 MOL      0.460687
     74 C25         0.8590    8.1200   -2.9530 c3        1 MOL     -0.349258
     75 O14         1.7220    9.5860   -1.4380 oh        1 MOL     -0.641738
     76 H29        -0.0050    7.6510   -0.3030 hn        1 MOL      0.268905
     77 H30         2.9020    7.5220   -0.1230 h1        1 MOL      0.133749
     78 H31         2.9900    8.3770   -2.3480 h1        1 MOL      0.045499
     79 H32         0.7920    9.6140   -1.1730 ho        1 MOL      0.384341
     80 H33         0.5580    9.0160   -3.5000 hc        1 MOL      0.081335
     81 H34         1.1850    7.4540   -3.7510 hc        1 MOL      0.081335
     82 H35        -0.0350    7.6480   -2.5620 hc        1 MOL      0.081335
     83 N9          1.4240    5.0160   -1.6950 n         1 MOL     -0.207566
     84 C26         1.6630    3.6740   -2.3310 c3        1 MOL      0.025338
     85 C27         1.3980    2.5950   -1.2810 c         1 MOL      0.445824
     86 O15         0.5940    2.7810   -0.3250 o         1 MOL     -0.476280
     87 C28         0.7840    3.4300   -3.5840 c3        1 MOL      0.180695
     88 C29         1.0050    4.4350   -4.7690 c3        1 MOL     -0.066352
     89 C30         1.1130    2.0070   -4.1480 c3        1 MOL     -0.254397
     90 C31         2.4100    4.8560   -5.1280 c3        1 MOL     -0.060415
     91 H36         0.5230    5.1640   -1.2560 hn        1 MOL      0.206907
     92 H37         2.7350    3.5980   -2.5150 h1        1 MOL      0.070586
     93 H38        -0.2630    3.4730   -3.2710 hc        1 MOL      0.017608
     94 H39         0.5000    5.2750   -4.3070 hc        1 MOL      0.011086
     95 H40         0.5030    4.1230   -5.6820 hc        1 MOL      0.011086
     96 H41         0.4750    1.9220   -5.0440 hc        1 MOL      0.060914
     97 H42         2.1620    1.9700   -4.4360 hc        1 MOL      0.060914
     98 H43         0.8220    1.2280   -3.4500 hc        1 MOL      0.060914
     99 H44         2.3150    5.3730   -6.0830 hc        1 MOL      0.011400
    100 H45         2.7900    5.5890   -4.4170 hc        1 MOL      0.011400
    101 H46         3.1050    4.0230   -5.2230 hc        1 MOL      0.011400
    102 N10         2.1110    1.4720   -1.3270 n         1 MOL     -0.473621
    103 C32         1.8820    0.3480   -0.3390 c3        1 MOL      0.362377
    104 C33         3.1970   -0.3230    0.1600 c         1 MOL      0.536544
    105 O16         3.2960   -1.5070    0.5130 o         1 MOL     -0.513982
    106 C34         0.8780   -0.6570   -1.0160 c3        1 MOL     -0.194926
    107 C35         0.1220   -1.6260   -0.1220 c         1 MOL      0.781798
    108 O17        -0.3060   -2.7150   -0.5780 o         1 MOL     -0.708527
    109 O18        -0.1290   -1.4130    1.0490 o         1 MOL     -0.708527
    110 H47         2.7630    1.3330   -2.0870 hn        1 MOL      0.278588
    111 H48         1.4010    0.6900    0.5720 h1        1 MOL     -0.042017
    112 H49         1.5010   -1.3500   -1.5910 hc        1 MOL      0.027107
    113 H50         0.2870   -0.0510   -1.7000 hc        1 MOL      0.027107
    114 N11         4.3310    0.4840    0.0670 n         1 MOL     -0.712634
    115 C36         5.6830   -0.0330    0.4520 c3        1 MOL      0.596277
    116 C37         6.0960   -1.1600   -0.4710 c         1 MOL      0.148339
    117 O19         5.7910   -1.1040   -1.6860 o         1 MOL     -0.587209
    118 C38         6.7340    1.0980    0.3090 c3        1 MOL     -0.273539
    119 C39         8.0810    0.6230    0.8590 ca        1 MOL      0.165792
    120 C40         8.3430    0.9140    2.1960 ca        1 MOL     -0.227723
    121 C41         9.0460   -0.0750    0.1390 ca        1 MOL     -0.227723
    122 C42         9.5320    0.4820    2.7380 ca        1 MOL     -0.063679
    123 C43        10.2780   -0.4810    0.6880 ca        1 MOL     -0.063679
    124 C44        10.5770   -0.1610    2.0020 ca        1 MOL     -0.155064
    125 H51         4.3120    1.3780   -0.3890 hn        1 MOL      0.300562
    126 H52         5.7740   -0.4210    1.4670 h1        1 MOL     -0.106847
    127 H53         6.3430    1.9390    0.8710 hc        1 MOL      0.084541
    128 H54         6.9250    1.3360   -0.7410 hc        1 MOL      0.084541
    129 H55         7.6580    1.5300    2.7540 ha        1 MOL      0.132844
    130 H56         8.8550   -0.2640   -0.9120 ha        1 MOL      0.132844
    131 H57         9.6800    0.6540    3.7920 ha        1 MOL      0.093091
    132 H58        11.0460   -0.9710    0.1080 ha        1 MOL      0.093091
    133 H59        11.5150   -0.4990    2.4240 ha        1 MOL      0.117322
    134 N12         6.7000   -2.2370   -0.0240 n         1 MOL      0.477017
    135 C45         7.4480   -3.0990   -0.8720 c3        1 MOL     -0.005416
    136 C46         6.4220   -3.8890   -1.6760 c         1 MOL      0.356375
    137 O20         6.7630   -4.3830   -2.7230 o         1 MOL     -0.509728
    138 C47         8.4020   -3.8450    0.0080 c3        1 MOL      0.006420
    139 C48         7.7740   -3.7310    1.4020 c3        1 MOL     -0.086628
    140 C49         6.9790   -2.5070    1.3740 c3        1 MOL     -0.386370
    141 H60         7.9500   -2.4520   -1.5800 h1        1 MOL      0.002669
    142 H61         8.4680   -4.9040   -0.2460 hc        1 MOL      0.021435
    143 H62         9.4150   -3.4290    0.0410 hc        1 MOL      0.021435
    144 H63         7.1130   -4.5880    1.5080 hc        1 MOL      0.041762
    145 H64         8.5650   -3.6070    2.1400 hc        1 MOL      0.041762
    146 H65         6.0690   -2.6480    1.9540 h1        1 MOL      0.129370
    147 H66         7.6200   -1.8300    1.9420 h1        1 MOL      0.129370
    148 N13         5.1710   -4.0480   -1.1680 n         1 MOL     -0.244466
    149 C50         4.1860   -4.8990   -1.8980 c3        1 MOL     -0.077726
    150 C51         4.0330   -4.4610   -3.4090 c         1 MOL      0.528283
    151 O21         3.8620   -5.3620   -4.2410 o         1 MOL     -0.567458
    152 C52         2.7650   -4.8350   -1.2980 c3        1 MOL      0.211320
    153 C53         2.7660   -4.9750    0.2850 c3        1 MOL     -0.122196
    154 C54         1.3610   -4.7720    0.8950 c         1 MOL      0.750430
    155 O22         1.1350   -4.2120    1.9660 o         1 MOL     -0.766303
    156 O23         0.3560   -5.4610    0.4540 o         1 MOL     -0.766303
    157 H67         4.8350   -3.6780   -0.2990 hn        1 MOL      0.149094
    158 H68         4.4150   -5.9620   -1.9520 h1        1 MOL      0.077498
    159 H69         2.1830   -5.7040   -1.6050 hc        1 MOL     -0.052368
    160 H70         2.2690   -3.8980   -1.5290 hc        1 MOL     -0.052368
    161 H71         3.3850   -4.1970    0.7310 hc        1 MOL      0.005578
    162 H72         3.2110   -5.9170    0.6070 hc        1 MOL      0.005578
    163 N14         4.0040   -3.1650   -3.6450 n         1 MOL     -0.224271
    164 C55         3.6010   -2.6750   -4.9460 c3        1 MOL     -0.412039
    165 H73         2.5130   -2.6700   -5.0110 h1        1 MOL      0.142326
    166 H74         3.9780   -1.6610   -5.0850 h1        1 MOL      0.142326
    167 H75         4.0080   -3.3240   -5.7220 h1        1 MOL      0.142326
    168 H76         4.0180   -2.5460   -2.8420 hn        1 MOL      0.304762
    169 Ca1        -1.4330   -3.6110    1.6310 Ca        1 MOL      1.737397
    170 O24        -2.2020   -6.0100    2.5830 oh        1 MOL     -0.818961
    171 H77        -3.0070   -6.1160    2.0690 ho        1 MOL      0.406393
    172 H78        -2.3740   -6.4950    3.3900 ho        1 MOL      0.406393
    173 O25        -2.9110   -4.6910   -0.4180 oh        1 MOL     -0.818961
    174 H79        -3.8590   -4.6520   -0.5670 ho        1 MOL      0.406393
    175 H80        -2.5900   -5.2660   -1.1240 ho        1 MOL      0.406393
    176 O26        -1.4560   -2.9330    4.1920 oh        1 MOL     -0.818961
    177 H81        -1.9680   -3.1990    4.9490 ho        1 MOL      0.406393
    178 H82        -0.6660   -2.5420    4.5640 ho        1 MOL      0.406393
@<TRIPOS>BOND
     1    1    2 1   
     2    1    4 1   
     3    1    5 1   
     4    1    6 1   
     5    2    3 2   
     6    2    7 1   
     7    7    8 1   
     8    7   15 1   
     9    8    9 1   
    10    8   11 1   
    11    8   16 1   
    12    9   10 2   
    13    9   19 1   
    14   11   12 1   
    15   11   17 1   
    16   11   18 1   
    17   12   13 1   
    18   12   14 1   
    19   19   20 1   
    20   19   24 1   
    21   20   21 1   
    22   20   23 1   
    23   20   25 1   
    24   21   22 2   
    25   21   29 1   
    26   23   26 1   
    27   23   27 1   
    28   23   28 1   
    29   29   30 1   
    30   29   37 1   
    31   30   31 1   
    32   30   33 1   
    33   30   38 1   
    34   31   32 2   
    35   31   41 1   
    36   33   34 1   
    37   33   39 1   
    38   33   40 1   
    39   34   35 1   
    40   34   36 1   
    41   41   42 1   
    42   41   45 1   
    43   42   43 1   
    44   42   46 1   
    45   42   47 1   
    46   43   44 2   
    47   43   48 1   
    48   48   49 1   
    49   48   56 1   
    50   49   50 1   
    51   49   52 1   
    52   49   57 1   
    53   50   51 2   
    54   50   62 1   
    55   52   53 1   
    56   52   58 1   
    57   52   59 1   
    58   53   54 1   
    59   53   55 2   
    60   54   60 1   
    61   54   61 1   
    62   62   63 1   
    63   62   66 1   
    64   63   64 1   
    65   63   67 1   
    66   63   68 1   
    67   64   65 2   
    68   64   69 1   
    69   69   70 1   
    70   69   76 1   
    71   70   71 1   
    72   70   73 1   
    73   70   77 1   
    74   71   72 2   
    75   71   83 1   
    76   73   74 1   
    77   73   75 1   
    78   73   78 1   
    79   74   80 1   
    80   74   81 1   
    81   74   82 1   
    82   75   79 1   
    83   83   84 1   
    84   83   91 1   
    85   84   85 1   
    86   84   87 1   
    87   84   92 1   
    88   85   86 2   
    89   85  102 1   
    90   87   88 1   
    91   87   89 1   
    92   87   93 1   
    93   88   90 1   
    94   88   94 1   
    95   88   95 1   
    96   89   96 1   
    97   89   97 1   
    98   89   98 1   
    99   90   99 1   
   100   90  100 1   
   101   90  101 1   
   102  102  103 1   
   103  102  110 1   
   104  103  104 1   
   105  103  106 1   
   106  103  111 1   
   107  104  105 2   
   108  104  114 1   
   109  106  107 1   
   110  106  112 1   
   111  106  113 1   
   112  107  108 1   
   113  107  109 1   
   114  114  115 1   
   115  114  125 1   
   116  115  116 1   
   117  115  118 1   
   118  115  126 1   
   119  116  117 2   
   120  116  134 1   
   121  118  119 1   
   122  118  127 1   
   123  118  128 1   
   124  119  120 ar  
   125  119  121 ar  
   126  120  122 ar  
   127  120  129 1   
   128  121  123 ar  
   129  121  130 1   
   130  122  124 ar  
   131  122  131 1   
   132  123  124 ar  
   133  123  132 1   
   134  124  133 1   
   135  134  135 1   
   136  134  140 1   
   137  135  136 1   
   138  135  138 1   
   139  135  141 1   
   140  136  137 2   
   141  136  148 1   
   142  138  139 1   
   143  138  142 1   
   144  138  143 1   
   145  139  140 1   
   146  139  144 1   
   147  139  145 1   
   148  140  146 1   
   149  140  147 1   
   150  148  149 1   
   151  148  157 1   
   152  149  150 1   
   153  149  152 1   
   154  149  158 1   
   155  150  151 2   
   156  150  163 1   
   157  152  153 1   
   158  152  159 1   
   159  152  160 1   
   160  153  154 1   
   161  153  161 1   
   162  153  162 1   
   163  154  155 1   
   164  154  156 1   
   165  163  164 1   
   166  163  168 1   
   167  164  165 1   
   168  164  166 1   
   169  164  167 1   
   170  170  171 1   
   171  170  172 1   
   172  173  174 1   
   173  173  175 1   
   174  176  177 1   
   175  176  178 1   
@<TRIPOS>SUBSTRUCTURE
     1 MOL         1 TEMP              0 ****  ****    0 ROOT
