@<TRIPOS>MOLECULE
MOL
  182   178     1     0     0
SMALL
resp


@<TRIPOS>ATOM
      1 C1          0.7010   -3.4360    6.6160 c3        1 MOL     -0.318783
      2 C2          0.8640   -3.3910    5.0090 c         1 MOL      0.694879
      3 O1         -0.1280   -3.6210    4.2860 o         1 MOL     -0.599893
      4 H1          0.1700   -2.5450    6.9520 hc        1 MOL      0.097101
      5 H2          0.1370   -4.3240    6.8990 hc        1 MOL      0.097101
      6 H3          1.6860   -3.4680    7.0810 hc        1 MOL      0.097101
      7 N1          2.0080   -3.0480    4.4700 n         1 MOL     -0.571186
      8 C3          2.2660   -2.8800    3.0520 c3        1 MOL      0.012304
      9 C4          2.4570   -4.1570    2.2440 c         1 MOL      0.759442
     10 O2          2.9250   -5.1790    2.7900 o         1 MOL     -0.584323
     11 C5          3.4410   -1.9640    2.8510 c3        1 MOL     -0.286054
     12 C6          3.3940   -1.1650    1.5170 c         1 MOL      0.421334
     13 O3          4.1490   -0.1980    1.4150 o         1 MOL     -0.625228
     14 O4          2.5760   -1.4500    0.6310 o         1 MOL     -0.625228
     15 H4          2.7660   -2.7650    5.0660 hn        1 MOL      0.324306
     16 H5          1.4730   -2.2290    2.7010 h1        1 MOL      0.038140
     17 H6          4.3000   -2.6370    2.8870 hc        1 MOL      0.133868
     18 H7          3.4040   -1.2060    3.6390 hc        1 MOL      0.133868
     19 N2          2.2440   -4.1960    0.9390 n         1 MOL     -0.609587
     20 C7          2.2740   -5.2780    0.0030 c3        1 MOL      0.078790
     21 C8          3.3170   -5.1030   -1.0510 c         1 MOL      0.427874
     22 O5          3.6790   -6.0290   -1.8330 o         1 MOL     -0.596550
     23 C9          0.8500   -5.4690   -0.6240 c3        1 MOL     -0.025291
     24 C10         0.6580   -6.5970   -1.6670 c3        1 MOL      0.059177
     25 C11        -0.7780   -6.7890   -2.1170 c3        1 MOL     -0.014298
     26 C12        -1.0570   -7.9310   -3.0440 c3        1 MOL      0.089039
     27 N3         -2.4780   -8.2270   -3.2160 n4        1 MOL     -0.262825
     28 H8          1.9360   -3.3300    0.5190 hn        1 MOL      0.336039
     29 H9          2.4930   -6.1750    0.5800 h1        1 MOL      0.121724
     30 H10         0.5790   -4.5670   -1.1630 hc        1 MOL      0.021859
     31 H11         0.1330   -5.6670    0.1690 hc        1 MOL      0.021859
     32 H12         1.1040   -7.5080   -1.2690 hc        1 MOL      0.007395
     33 H13         1.1690   -6.1320   -2.5080 hc        1 MOL      0.007395
     34 H14        -1.1310   -5.8410   -2.5210 hc        1 MOL      0.023470
     35 H15        -1.2750   -6.9120   -1.1530 hc        1 MOL      0.023470
     36 H16        -0.5810   -8.7550   -2.5020 hx        1 MOL      0.052449
     37 H17        -0.4590   -7.8860   -3.9510 hx        1 MOL      0.052449
     38 H18        -2.7520   -8.9760   -3.8450 hn        1 MOL      0.250932
     39 H19        -2.7710   -8.7870   -2.4200 hn        1 MOL      0.250932
     40 H20        -3.1060   -7.4970   -3.5340 hn        1 MOL      0.250932
     41 N4          3.9160   -3.9240   -1.2350 n         1 MOL     -0.137727
     42 C13         5.1920   -3.8840   -1.9350 c3        1 MOL     -0.018888
     43 C14         6.3290   -3.3110   -1.0530 c         1 MOL      0.396164
     44 O6          7.4960   -3.5010   -1.4140 o         1 MOL     -0.500066
     45 C15         5.0240   -3.0190   -3.2060 c3        1 MOL     -0.371822
     46 C16         4.7750   -1.5200   -2.8190 c         1 MOL      0.686032
     47 O7          5.2470   -0.7000   -3.6520 o         1 MOL     -0.694036
     48 O8          4.3140   -1.1320   -1.6910 o         1 MOL     -0.694036
     49 H21         3.6730   -3.0710   -0.7390 hn        1 MOL      0.178533
     50 H22         5.5750   -4.8600   -2.2510 h1        1 MOL      0.159499
     51 H23         4.2230   -3.3830   -3.8500 hc        1 MOL      0.130282
     52 H24         5.9860   -2.9960   -3.7110 hc        1 MOL      0.130282
     53 N5          5.9430   -2.7020    0.0650 n         1 MOL     -0.191494
     54 C17         6.8360   -1.9780    0.9590 c3        1 MOL     -0.018270
     55 C18         7.3470   -0.5740    0.5210 c         1 MOL      0.413410
     56 O9          8.4260   -0.1380    0.9570 o         1 MOL     -0.527296
     57 H25         4.9560   -2.4580    0.1050 hn        1 MOL      0.042144
     58 H26         7.6540   -2.6450    1.2300 h1        1 MOL      0.078092
     59 H27         6.2330   -1.8650    1.8660 h1        1 MOL      0.078092
     60 N6          6.6550    0.1500   -0.3660 n         1 MOL     -0.063680
     61 C19         6.9800    1.4630   -0.8900 c3        1 MOL     -0.064138
     62 C20         5.8080    2.4770   -0.8640 c         1 MOL      0.458655
     63 O10         4.6800    2.0720   -0.7650 o         1 MOL     -0.472740
     64 C21         7.6020    1.3220   -2.3380 c3        1 MOL     -0.296138
     65 C22         8.4640    0.0810   -2.3950 c         1 MOL      0.731334
     66 N7          7.9330   -0.9090   -3.0290 n         1 MOL     -0.784695
     67 O11         9.6080    0.0080   -2.0070 o         1 MOL     -0.574589
     68 H28         5.7720   -0.2710   -0.6360 hn        1 MOL      0.267635
     69 H29         7.6620    1.9850   -0.2270 h1        1 MOL      0.075724
     70 H30         8.1460    2.2330   -2.6190 hc        1 MOL      0.069941
     71 H31         6.8200    1.1080   -3.0570 hc        1 MOL      0.069941
     72 H32         6.9820   -0.9740   -3.3670 hn        1 MOL      0.355223
     73 H33         8.3950   -1.8030   -3.0970 hn        1 MOL      0.355223
     74 N8          6.1210    3.7990   -0.9590 n         1 MOL     -0.317832
     75 C23         5.2090    4.9160   -0.9580 c3        1 MOL     -0.269856
     76 C24         4.2540    4.9410    0.2940 c         1 MOL      0.633530
     77 O12         4.7480    4.8530    1.4160 o         1 MOL     -0.493545
     78 H34         7.1050    4.0060   -1.0370 hn        1 MOL      0.318330
     79 H35         4.5830    4.9850   -1.8570 h1        1 MOL      0.111089
     80 H36         5.8690    5.7790   -0.9040 h1        1 MOL      0.111089
     81 N9          2.9670    5.1710   -0.0060 n         1 MOL     -0.537489
     82 C25         1.7930    5.0250    0.8460 c3        1 MOL      0.115536
     83 C26         1.5390    3.5290    1.0970 c         1 MOL      0.508515
     84 O13         2.2590    2.5720    0.6760 o         1 MOL     -0.474976
     85 C27         0.5880    5.6700    0.0380 c3        1 MOL     -0.132366
     86 C28         0.7060    7.1730   -0.3480 ca        1 MOL      0.097958
     87 C29         1.1070    8.0990    0.5920 ca        1 MOL     -0.199298
     88 C30         0.5480    7.5550   -1.6570 ca        1 MOL     -0.199298
     89 C31         1.2350    9.4360    0.1470 ca        1 MOL     -0.231535
     90 C32         0.7970    8.8560   -2.0860 ca        1 MOL     -0.231535
     91 C33         1.0310    9.8340   -1.1550 ca        1 MOL      0.360279
     92 O14         1.0740   11.1200   -1.4830 oh        1 MOL     -0.461474
     93 H37         2.7480    5.3380   -0.9730 hn        1 MOL      0.302819
     94 H38         1.9160    5.5890    1.7610 h1        1 MOL      0.080575
     95 H39        -0.3160    5.5560    0.6320 hc        1 MOL      0.043589
     96 H40         0.3620    5.0260   -0.8090 hc        1 MOL      0.043589
     97 H41         1.2070    7.7270    1.5940 ha        1 MOL      0.141166
     98 H42         0.3450    6.8280   -2.4340 ha        1 MOL      0.141166
     99 H43         1.4660   10.1820    0.9010 ha        1 MOL      0.145228
    100 H44         0.7740    9.1490   -3.1210 ha        1 MOL      0.145228
    101 H45         0.8680   11.5900   -0.6720 ho        1 MOL      0.351007
    102 N10         0.5270    3.3600    2.0040 n         1 MOL     -0.604999
    103 C34         0.0200    2.1120    2.5330 c3        1 MOL      0.097450
    104 C35        -0.3330    0.9780    1.5300 c         1 MOL      0.387606
    105 O15         0.4480    0.4540    0.7870 o         1 MOL     -0.316818
    106 C36         0.9990    1.4640    3.5090 c3        1 MOL      0.210877
    107 C37         0.3430    0.2850    4.3590 c3        1 MOL     -0.264362
    108 C38         1.8970    2.3110    4.4550 c3        1 MOL     -0.360531
    109 C39        -0.7660    0.7310    5.3850 c3        1 MOL     -0.121090
    110 H46         0.0450    4.2050    2.2660 hn        1 MOL      0.344490
    111 H47        -0.9310    2.3080    3.0390 h1        1 MOL      0.036530
    112 H48         1.7800    1.0530    2.8660 hc        1 MOL      0.109794
    113 H49         1.1580   -0.1970    4.9100 hc        1 MOL      0.090513
    114 H50        -0.0340   -0.4960    3.6910 hc        1 MOL      0.090513
    115 H51         2.3860    1.5490    5.0680 hc        1 MOL      0.096036
    116 H52         2.6430    2.9130    3.9430 hc        1 MOL      0.096036
    117 H53         1.2850    2.7420    5.2500 hc        1 MOL      0.096036
    118 H54        -0.9600    0.0550    6.2220 hc        1 MOL      0.043792
    119 H55        -0.4000    1.6260    5.8870 hc        1 MOL      0.043792
    120 H56        -1.7420    0.9570    4.9730 hc        1 MOL      0.043792
    121 N11        -1.5150    0.3900    1.6410 n         1 MOL     -0.521415
    122 C40        -1.9580   -0.7950    0.8960 c3        1 MOL     -0.075145
    123 C41        -3.3760   -1.0990    0.6480 c         1 MOL      0.629843
    124 O16        -3.6140   -2.0960   -0.0410 o         1 MOL     -0.581563
    125 C42        -1.4210   -1.9970    1.6440 c3        1 MOL      0.580620
    126 O17        -1.8060   -1.9750    2.9980 oh        1 MOL     -0.693283
    127 H57        -2.1530    0.6320    2.3900 hn        1 MOL      0.330999
    128 H58        -1.4260   -0.8150   -0.0500 h1        1 MOL      0.045265
    129 H59        -0.3330   -2.0180    1.5410 h1        1 MOL     -0.125580
    130 H60        -1.7810   -2.9190    1.1830 h1        1 MOL     -0.125580
    131 H61        -1.2120   -2.5780    3.4450 ho        1 MOL      0.438318
    132 N12        -4.2400   -0.2070    1.0900 n         1 MOL     -0.507405
    133 C43        -5.6750   -0.2690    0.6810 c3        1 MOL      0.093635
    134 C44        -5.8480    0.2770   -0.7610 c         1 MOL      0.576942
    135 O18        -5.1000    1.1400   -1.1920 o         1 MOL     -0.582630
    136 C45        -6.4780    0.4240    1.7080 c3        1 MOL     -0.127313
    137 H62        -3.9010    0.6190    1.5640 hn        1 MOL      0.286565
    138 H63        -5.9400   -1.3210    0.7090 h1        1 MOL      0.102878
    139 H64        -6.5330   -0.0120    2.7100 hc        1 MOL      0.052842
    140 H65        -6.1060    1.4380    1.8570 hc        1 MOL      0.052842
    141 H66        -7.5290    0.4670    1.3930 hc        1 MOL      0.052842
    142 N13        -6.8650   -0.0150   -1.5770 n         1 MOL     -0.502096
    143 C46        -7.9490   -0.9270   -1.3510 c3        1 MOL      0.184723
    144 C47        -9.1790   -0.4370   -2.0780 c         1 MOL      0.414492
    145 O19        -9.0140    0.2270   -3.1320 o         1 MOL     -0.514415
    146 C48        -7.4770   -2.3850   -1.6780 c3        1 MOL     -0.284026
    147 H67        -6.8700    0.4960   -2.4490 hn        1 MOL      0.316240
    148 H68        -8.1940   -0.9110   -0.2900 h1        1 MOL      0.007371
    149 H69        -8.1990   -3.1430   -1.3800 hc        1 MOL      0.079698
    150 H70        -7.3770   -2.5880   -2.7530 hc        1 MOL      0.079698
    151 H71        -6.5500   -2.6380   -1.1630 hc        1 MOL      0.079698
    152 N14       -10.4160   -0.5750   -1.5670 n         1 MOL     -0.268574
    153 C49       -10.8730   -0.8740   -0.1450 c3        1 MOL     -0.182895
    154 C50       -10.4130    0.2540    0.8290 c         1 MOL      0.636205
    155 O20       -10.0950    0.0020    2.0050 o         1 MOL     -0.587628
    156 C51       -12.4450   -1.1630   -0.0450 c3        1 MOL     -0.091711
    157 C52       -13.2930    0.1370   -0.3210 c3        1 MOL     -0.281251
    158 C53       -13.1960    0.7130   -1.7360 c         1 MOL      0.689319
    159 O21       -13.4080    0.0400   -2.8240 o         1 MOL     -0.635781
    160 O22       -12.7990    1.8810   -1.9140 o         1 MOL     -0.635781
    161 H72       -11.1130   -0.4730   -2.2910 hn        1 MOL      0.255424
    162 H73       -10.3060   -1.7500    0.1490 h1        1 MOL      0.075768
    163 H74       -12.6810   -1.4660    0.9700 hc        1 MOL      0.073623
    164 H75       -12.6480   -1.9850   -0.7360 hc        1 MOL      0.073623
    165 H76       -13.0130    0.8690    0.4420 hc        1 MOL      0.079714
    166 H77       -14.3530   -0.0180   -0.1160 hc        1 MOL      0.079714
    167 N15       -10.2300    1.4180    0.2360 n         1 MOL     -0.245066
    168 C54        -9.6250    2.5540    0.9320 c3        1 MOL     -0.262825
    169 H78       -10.2850    2.8810    1.7350 h1        1 MOL      0.107839
    170 H79        -8.6640    2.2550    1.3490 h1        1 MOL      0.107839
    171 H80        -9.4760    3.3740    0.2290 h1        1 MOL      0.107839
    172 H81       -10.5420    1.5180   -0.7180 hn        1 MOL      0.261915
    173 Ca1         2.3860    0.5060   -1.0300 Ca        1 MOL      1.709828
    174 O23         3.3440    1.0630   -3.3990 oh        1 MOL     -0.920925
    175 H82         3.4170    1.6760   -4.1250 ho        1 MOL      0.446176
    176 H83         4.0070    0.3920   -3.5880 ho        1 MOL      0.446176
    177 O24         0.6260   -1.0360   -2.1790 oh        1 MOL     -0.920925
    178 H84        -0.2270   -0.6050   -2.2340 ho        1 MOL      0.446176
    179 H85         0.5430   -1.8150   -2.7220 ho        1 MOL      0.446176
    180 O25         0.7060    2.2000   -2.0670 oh        1 MOL     -0.920925
    181 H86        -0.1810    2.3010   -1.7320 ho        1 MOL      0.446176
    182 H87         0.6240    2.3720   -3.0050 ho        1 MOL      0.446176
@<TRIPOS>BOND
     1    1    2 1   
     2    1    4 1   
     3    1    5 1   
     4    1    6 1   
     5    2    3 2   
     6    2    7 1   
     7    7    8 1   
     8    7   15 1   
     9    8    9 1   
    10    8   11 1   
    11    8   16 1   
    12    9   10 2   
    13    9   19 1   
    14   11   12 1   
    15   11   17 1   
    16   11   18 1   
    17   12   13 1   
    18   12   14 1   
    19   19   20 1   
    20   19   28 1   
    21   20   21 1   
    22   20   23 1   
    23   20   29 1   
    24   21   22 2   
    25   21   41 1   
    26   23   24 1   
    27   23   30 1   
    28   23   31 1   
    29   24   25 1   
    30   24   32 1   
    31   24   33 1   
    32   25   26 1   
    33   25   34 1   
    34   25   35 1   
    35   26   27 1   
    36   26   36 1   
    37   26   37 1   
    38   27   38 1   
    39   27   39 1   
    40   27   40 1   
    41   41   42 1   
    42   41   49 1   
    43   42   43 1   
    44   42   45 1   
    45   42   50 1   
    46   43   44 2   
    47   43   53 1   
    48   45   46 1   
    49   45   51 1   
    50   45   52 1   
    51   46   47 1   
    52   46   48 1   
    53   53   54 1   
    54   53   57 1   
    55   54   55 1   
    56   54   58 1   
    57   54   59 1   
    58   55   56 2   
    59   55   60 1   
    60   60   61 1   
    61   60   68 1   
    62   61   62 1   
    63   61   64 1   
    64   61   69 1   
    65   62   63 2   
    66   62   74 1   
    67   64   65 1   
    68   64   70 1   
    69   64   71 1   
    70   65   66 1   
    71   65   67 2   
    72   66   72 1   
    73   66   73 1   
    74   74   75 1   
    75   74   78 1   
    76   75   76 1   
    77   75   79 1   
    78   75   80 1   
    79   76   77 2   
    80   76   81 1   
    81   81   82 1   
    82   81   93 1   
    83   82   83 1   
    84   82   85 1   
    85   82   94 1   
    86   83   84 2   
    87   83  102 1   
    88   85   86 1   
    89   85   95 1   
    90   85   96 1   
    91   86   87 ar  
    92   86   88 ar  
    93   87   89 ar  
    94   87   97 1   
    95   88   90 ar  
    96   88   98 1   
    97   89   91 ar  
    98   89   99 1   
    99   90   91 ar  
   100   90  100 1   
   101   91   92 1   
   102   92  101 1   
   103  102  103 1   
   104  102  110 1   
   105  103  104 1   
   106  103  106 1   
   107  103  111 1   
   108  104  105 2   
   109  104  121 1   
   110  106  107 1   
   111  106  108 1   
   112  106  112 1   
   113  107  109 1   
   114  107  113 1   
   115  107  114 1   
   116  108  115 1   
   117  108  116 1   
   118  108  117 1   
   119  109  118 1   
   120  109  119 1   
   121  109  120 1   
   122  121  122 1   
   123  121  127 1   
   124  122  123 1   
   125  122  125 1   
   126  122  128 1   
   127  123  124 2   
   128  123  132 1   
   129  125  126 1   
   130  125  129 1   
   131  125  130 1   
   132  126  131 1   
   133  132  133 1   
   134  132  137 1   
   135  133  134 1   
   136  133  136 1   
   137  133  138 1   
   138  134  135 2   
   139  134  142 1   
   140  136  139 1   
   141  136  140 1   
   142  136  141 1   
   143  142  143 1   
   144  142  147 1   
   145  143  144 1   
   146  143  146 1   
   147  143  148 1   
   148  144  145 2   
   149  144  152 1   
   150  146  149 1   
   151  146  150 1   
   152  146  151 1   
   153  152  153 1   
   154  152  161 1   
   155  153  154 1   
   156  153  156 1   
   157  153  162 1   
   158  154  155 2   
   159  154  167 1   
   160  156  157 1   
   161  156  163 1   
   162  156  164 1   
   163  157  158 1   
   164  157  165 1   
   165  157  166 1   
   166  158  159 1   
   167  158  160 1   
   168  167  168 1   
   169  167  172 1   
   170  168  169 1   
   171  168  170 1   
   172  168  171 1   
   173  174  175 1   
   174  174  176 1   
   175  177  178 1   
   176  177  179 1   
   177  180  181 1   
   178  180  182 1   
@<TRIPOS>SUBSTRUCTURE
     1 MOL         1 TEMP              0 ****  ****    0 ROOT
