@<TRIPOS>MOLECULE
MOL
  178   175     1     0     0
SMALL
resp


@<TRIPOS>ATOM
      1 C1         -2.2410    6.9050    1.8250 c3        1 MOL     -0.512847
      2 C2         -3.4600    6.6820    1.0220 c         1 MOL      0.684457
      3 O1         -3.6510    7.3460   -0.0040 o         1 MOL     -0.572965
      4 H1         -1.4380    6.2720    1.4480 hc        1 MOL      0.131890
      5 H2         -1.9440    7.9500    1.7530 hc        1 MOL      0.131890
      6 H3         -2.4410    6.6540    2.8670 hc        1 MOL      0.131890
      7 N1         -4.4770    6.0380    1.6510 n         1 MOL     -0.531306
      8 C3         -5.8080    5.8880    0.9870 c3        1 MOL      0.274813
      9 C4         -5.8120    4.6510    0.0560 c         1 MOL      0.466353
     10 O2         -6.4810    3.6480    0.3450 o         1 MOL     -0.470030
     11 C5         -6.9020    5.9260    2.0810 c3        1 MOL     -0.106547
     12 C6         -8.2790    6.1710    1.5070 c         1 MOL      0.710975
     13 O3         -8.6080    7.3760    1.3240 o         1 MOL     -0.740063
     14 O4         -8.9950    5.2070    1.1680 o         1 MOL     -0.740063
     15 H4         -4.2810    5.4540    2.4510 hn        1 MOL      0.272691
     16 H5         -5.9230    6.7980    0.3990 h1        1 MOL      0.040558
     17 H6         -6.6120    6.7320    2.7540 hc        1 MOL     -0.030017
     18 H7         -6.9210    4.9690    2.6040 hc        1 MOL     -0.030017
     19 N2         -5.1090    4.7660   -1.0590 n         1 MOL     -0.759067
     20 C7         -5.2140    3.8050   -2.0780 c3        1 MOL      0.985687
     21 C8         -3.8080    3.4500   -2.6080 c         1 MOL      0.255580
     22 O5         -2.8590    4.2260   -2.3740 o         1 MOL     -0.531023
     23 C9         -6.1600    4.3870   -3.1410 c3        1 MOL     -0.217355
     24 H8         -4.5110    5.5610   -1.2350 hn        1 MOL      0.286731
     25 H9         -5.6250    2.8420   -1.7500 h1        1 MOL     -0.222827
     26 H10        -5.6650    5.2740   -3.5280 hc        1 MOL      0.021331
     27 H11        -6.1990    3.7160   -3.9870 hc        1 MOL      0.021331
     28 H12        -7.1250    4.6280   -2.6940 hc        1 MOL      0.021331
     29 N3         -3.5860    2.2810   -3.2180 n         1 MOL     -0.369256
     30 C10        -4.4990    1.1260   -3.1480 c3        1 MOL      0.030087
     31 C11        -4.6670    0.5280   -1.7090 c         1 MOL      0.579783
     32 O6         -3.7760    0.6450   -0.8910 o         1 MOL     -0.556240
     33 C12        -3.9310   -0.0290   -3.9920 c3        1 MOL     -0.450764
     34 C13        -2.5450   -0.5500   -3.4750 c         1 MOL      0.954612
     35 O7         -1.4330   -0.1410   -3.8750 o         1 MOL     -0.815149
     36 O8         -2.4560   -1.5170   -2.7010 o         1 MOL     -0.815149
     37 H13        -2.7010    2.2100   -3.6990 hn        1 MOL      0.263769
     38 H14        -5.4660    1.5250   -3.4630 h1        1 MOL      0.065875
     39 H15        -3.8310    0.3540   -5.0160 hc        1 MOL      0.108609
     40 H16        -4.7490   -0.7500   -3.9310 hc        1 MOL      0.108609
     41 N4         -5.8310   -0.1030   -1.4170 n         1 MOL     -0.426670
     42 C14        -5.9840   -0.7620   -0.1480 c3        1 MOL      0.003857
     43 C15        -7.4550   -1.2130   -0.0140 c         1 MOL      0.572946
     44 O9         -8.2880   -0.3490   -0.1350 o         1 MOL     -0.490119
     45 H17        -6.6020   -0.2540   -2.0500 hn        1 MOL      0.276010
     46 H18        -5.8530   -0.1050    0.7120 h1        1 MOL      0.076124
     47 H19        -5.3230   -1.6210   -0.1450 h1        1 MOL      0.076124
     48 N5         -7.8580   -2.4630    0.3020 n         1 MOL     -0.552064
     49 C16        -7.0930   -3.7050    0.5860 c3        1 MOL      0.169522
     50 C17        -6.0140   -3.3800    1.6530 c         1 MOL      0.606025
     51 O10        -6.1780   -2.4510    2.4410 o         1 MOL     -0.481145
     52 C18        -8.0640   -4.8510    1.0020 c3        1 MOL     -0.272603
     53 C19        -8.6250   -4.7210    2.3910 c         1 MOL      0.641025
     54 N6         -8.1210   -5.5200    3.3470 n         1 MOL     -0.819445
     55 O11        -9.3980   -3.8110    2.6820 o         1 MOL     -0.501943
     56 H20        -8.8570   -2.6100    0.2990 hn        1 MOL      0.306093
     57 H21        -6.5620   -4.0080   -0.3210 h1        1 MOL      0.032465
     58 H22        -7.4620   -5.7670    0.9940 hc        1 MOL      0.071667
     59 H23        -8.8720   -5.0770    0.3000 hc        1 MOL      0.071667
     60 H24        -7.4040   -6.1770    3.0740 hn        1 MOL      0.382745
     61 H25        -8.3390   -5.2780    4.3060 hn        1 MOL      0.382745
     62 N7         -4.8070   -3.9980    1.5860 n         1 MOL     -0.483901
     63 C20        -3.7070   -3.6110    2.5050 c3        1 MOL     -0.331855
     64 C21        -2.3660   -4.2460    2.0730 c         1 MOL      0.626245
     65 O12        -1.5100   -4.6080    2.8900 o         1 MOL     -0.577571
     66 H26        -4.6860   -4.7630    0.9470 hn        1 MOL      0.216635
     67 H27        -3.8850   -3.9620    3.5210 h1        1 MOL      0.178081
     68 H28        -3.6610   -2.5200    2.4250 h1        1 MOL      0.178081
     69 N8         -2.2880   -4.6610    0.8100 n         1 MOL     -0.307736
     70 C22        -1.1050   -5.3070    0.3130 c3        1 MOL     -0.310616
     71 C23         0.0260   -4.2330    0.2150 c         1 MOL      0.810288
     72 O13        -0.0470   -3.2140   -0.4620 o         1 MOL     -0.659191
     73 C24        -1.2680   -6.0050   -1.0890 c3        1 MOL      0.300044
     74 C25         0.0530   -6.4310   -1.7540 c3        1 MOL     -0.269653
     75 O14        -2.1530   -7.1290   -0.8620 oh        1 MOL     -0.626276
     76 H29        -2.9670   -4.3010    0.1510 hn        1 MOL      0.281533
     77 H30        -0.8120   -6.0480    1.0510 h1        1 MOL      0.181647
     78 H31        -1.8030   -5.3810   -1.8030 h1        1 MOL      0.048167
     79 H32        -3.0750   -6.9010   -0.9990 ho        1 MOL      0.373901
     80 H33        -0.1970   -7.0500   -2.6060 hc        1 MOL      0.100851
     81 H34         0.6660   -5.5870   -2.0750 hc        1 MOL      0.100851
     82 H35         0.5480   -7.1830   -1.1350 hc        1 MOL      0.100851
     83 N9          1.1940   -4.4890    0.9070 n         1 MOL     -0.620566
     84 C26         2.4170   -3.6380    0.9280 c3        1 MOL     -0.022093
     85 C27         3.2390   -3.7880   -0.3470 c         1 MOL      0.583034
     86 O15         3.5190   -4.9320   -0.7460 o         1 MOL     -0.568897
     87 C28         3.1740   -3.9110    2.2300 c3        1 MOL      0.312645
     88 C29         4.4840   -3.1170    2.4420 c3        1 MOL     -0.057882
     89 C30         2.1170   -3.7990    3.4170 c3        1 MOL     -0.310266
     90 C31         5.2080   -3.4820    3.7310 c3        1 MOL     -0.099741
     91 H36         1.2540   -5.3560    1.4190 hn        1 MOL      0.294734
     92 H37         2.1940   -2.5720    0.9620 h1        1 MOL      0.108643
     93 H38         3.5180   -4.9340    2.1390 hc        1 MOL     -0.047269
     94 H39         4.2840   -2.0460    2.5040 hc        1 MOL      0.027164
     95 H40         5.1200   -3.2800    1.5760 hc        1 MOL      0.027164
     96 H41         1.6120   -2.8340    3.4450 hc        1 MOL      0.080855
     97 H42         1.4280   -4.6420    3.3900 hc        1 MOL      0.080855
     98 H43         2.6960   -3.9090    4.3300 hc        1 MOL      0.080855
     99 H44         5.2570   -4.5680    3.8080 hc        1 MOL      0.012653
    100 H45         6.2590   -3.1890    3.7940 hc        1 MOL      0.012653
    101 H46         4.6930   -3.1510    4.6220 hc        1 MOL      0.012653
    102 N10         3.8000   -2.6730   -0.8410 n         1 MOL     -0.342793
    103 C32         4.4700   -2.6110   -2.1390 c3        1 MOL      0.059718
    104 C33         5.8190   -1.7420   -2.0820 c         1 MOL      0.517632
    105 O16         6.6310   -1.7470   -3.0200 o         1 MOL     -0.559911
    106 C34         3.5880   -2.0000   -3.2230 c3        1 MOL      0.062476
    107 C35         2.2880   -2.7880   -3.4030 c         1 MOL      0.614336
    108 O17         1.1350   -2.3450   -3.1300 o         1 MOL     -0.677111
    109 O18         2.3450   -3.9710   -3.8690 o         1 MOL     -0.677111
    110 H47         3.4000   -1.8450   -0.4210 hn        1 MOL      0.082959
    111 H48         4.8620   -3.5760   -2.4630 h1        1 MOL      0.086476
    112 H49         4.1530   -2.1150   -4.1500 hc        1 MOL     -0.029494
    113 H50         3.3550   -0.9450   -3.1010 hc        1 MOL     -0.029494
    114 N11         6.0090   -0.8860   -1.0450 n         1 MOL     -0.591571
    115 C36         7.0280    0.0990   -1.0380 c3        1 MOL      0.434591
    116 C37         6.5460    1.3960   -0.3540 c         1 MOL      0.187412
    117 O19         7.0060    1.8260    0.7310 o         1 MOL     -0.419680
    118 C38         8.2500   -0.4730   -0.3050 c3        1 MOL     -0.265195
    119 C39         9.5190    0.4230   -0.1340 ca        1 MOL      0.016607
    120 C40        10.3250    0.3330    1.0410 ca        1 MOL     -0.071902
    121 C41         9.7730    1.5170   -0.9660 ca        1 MOL     -0.071902
    122 C42        11.3160    1.1890    1.3110 ca        1 MOL     -0.187787
    123 C43        10.8130    2.4310   -0.6640 ca        1 MOL     -0.187787
    124 C44        11.5700    2.2820    0.4790 ca        1 MOL     -0.064109
    125 H51         5.3000   -0.8210   -0.3310 hn        1 MOL      0.330566
    126 H52         7.2820    0.3910   -2.0590 h1        1 MOL      0.002879
    127 H53         8.6740   -1.2610   -0.9200 hc        1 MOL      0.105352
    128 H54         8.0690   -0.9190    0.6780 hc        1 MOL      0.105352
    129 H55        10.1050   -0.4830    1.7170 ha        1 MOL      0.084250
    130 H56         9.1590    1.6440   -1.8420 ha        1 MOL      0.084250
    131 H57        11.8040    1.2290    2.2740 ha        1 MOL      0.113003
    132 H58        10.9050    3.2620   -1.3500 ha        1 MOL      0.113003
    133 H59        12.2660    3.0810    0.7050 ha        1 MOL      0.086186
    134 N12         5.5610    2.1430   -0.9370 n         1 MOL      0.010214
    135 C45         5.2400    3.4910   -0.5580 c3        1 MOL     -0.117714
    136 C46         4.5920    3.7080    0.8050 c         1 MOL      0.206631
    137 O20         4.6110    4.8240    1.2370 o         1 MOL     -0.467848
    138 C47         4.4390    4.1860   -1.7320 c3        1 MOL     -0.095692
    139 C48         4.4630    3.1810   -2.9060 c3        1 MOL      0.040231
    140 C49         4.7670    1.8740   -2.1800 c3        1 MOL     -0.022755
    141 H60         6.2130    3.9740   -0.5690 h1        1 MOL      0.124332
    142 H61         3.3860    4.3110   -1.4670 hc        1 MOL      0.061179
    143 H62         4.8740    5.1000   -2.1430 hc        1 MOL      0.061179
    144 H63         3.5550    3.1240   -3.5050 hc        1 MOL     -0.014617
    145 H64         5.3500    3.3300   -3.5140 hc        1 MOL     -0.014617
    146 H65         3.7700    1.4640   -1.9740 h1        1 MOL      0.069500
    147 H66         5.1840    1.1960   -2.9250 h1        1 MOL      0.069500
    148 N13         4.1860    2.6430    1.4680 n         1 MOL      0.135167
    149 C50         3.6280    2.6380    2.8350 c3        1 MOL     -0.251642
    150 C51         4.7350    2.9230    3.8880 c         1 MOL      0.408487
    151 O21         4.6090    3.8230    4.7500 o         1 MOL     -0.518550
    152 C52         2.9780    1.2280    3.1270 c3        1 MOL      0.086255
    153 C53         1.9720    0.6070    2.1220 c3        1 MOL     -0.021040
    154 C54         2.6600    0.1250    0.8150 c         1 MOL      0.460297
    155 O22         1.8940   -0.2890   -0.1240 o         1 MOL     -0.640755
    156 O23         3.9020   -0.0360    0.6130 o         1 MOL     -0.640755
    157 H67         4.2160    1.7780    0.9530 hn        1 MOL      0.166436
    158 H68         2.8910    3.4220    3.0140 h1        1 MOL      0.114226
    159 H69         2.4750    1.2210    4.0860 hc        1 MOL     -0.007121
    160 H70         3.7890    0.5340    3.3370 hc        1 MOL     -0.007121
    161 H71         1.2200    1.3520    1.8470 hc        1 MOL      0.019434
    162 H72         1.5290   -0.2870    2.5630 hc        1 MOL      0.019434
    163 N14         5.9240    2.3760    3.6160 n         1 MOL     -0.106342
    164 C55         7.1570    2.6620    4.3820 c3        1 MOL     -0.334939
    165 H73         7.9500    1.9860    4.0600 h1        1 MOL      0.125377
    166 H74         7.4660    3.6920    4.2040 h1        1 MOL      0.125377
    167 H75         6.9670    2.5170    5.4450 h1        1 MOL      0.125377
    168 H76         5.9890    1.7750    2.8150 hn        1 MOL      0.166077
    169 Ca1        -0.0880   -0.8410   -1.5870 Ca        1 MOL      1.716958
    170 O24        -2.2380   -1.4140    0.1660 oh        1 MOL     -0.826861
    171 H77        -2.6240   -0.7700    0.7500 ho        1 MOL      0.413076
    172 H78        -2.9790   -1.7820   -0.3090 ho        1 MOL      0.413076
    173 O25        -1.1370    1.4450   -1.0910 oh        1 MOL     -0.826861
    174 H79        -2.0850    1.4940   -1.0240 ho        1 MOL      0.413076
    175 H80        -0.8730    2.2990   -1.4470 ho        1 MOL      0.413076
    176 O26         1.0990    1.1790   -2.9960 oh        1 MOL     -0.826861
    177 H81         1.4500    0.9410   -3.8460 ho        1 MOL      0.413076
    178 H82         0.5500    1.9490   -3.1730 ho        1 MOL      0.413076
@<TRIPOS>BOND
     1    1    2 1   
     2    1    4 1   
     3    1    5 1   
     4    1    6 1   
     5    2    3 2   
     6    2    7 1   
     7    7    8 1   
     8    7   15 1   
     9    8    9 1   
    10    8   11 1   
    11    8   16 1   
    12    9   10 2   
    13    9   19 1   
    14   11   12 1   
    15   11   17 1   
    16   11   18 1   
    17   12   13 1   
    18   12   14 1   
    19   19   20 1   
    20   19   24 1   
    21   20   21 1   
    22   20   23 1   
    23   20   25 1   
    24   21   22 2   
    25   21   29 1   
    26   23   26 1   
    27   23   27 1   
    28   23   28 1   
    29   29   30 1   
    30   29   37 1   
    31   30   31 1   
    32   30   33 1   
    33   30   38 1   
    34   31   32 2   
    35   31   41 1   
    36   33   34 1   
    37   33   39 1   
    38   33   40 1   
    39   34   35 1   
    40   34   36 1   
    41   41   42 1   
    42   41   45 1   
    43   42   43 1   
    44   42   46 1   
    45   42   47 1   
    46   43   44 2   
    47   43   48 1   
    48   48   49 1   
    49   48   56 1   
    50   49   50 1   
    51   49   52 1   
    52   49   57 1   
    53   50   51 2   
    54   50   62 1   
    55   52   53 1   
    56   52   58 1   
    57   52   59 1   
    58   53   54 1   
    59   53   55 2   
    60   54   60 1   
    61   54   61 1   
    62   62   63 1   
    63   62   66 1   
    64   63   64 1   
    65   63   67 1   
    66   63   68 1   
    67   64   65 2   
    68   64   69 1   
    69   69   70 1   
    70   69   76 1   
    71   70   71 1   
    72   70   73 1   
    73   70   77 1   
    74   71   72 2   
    75   71   83 1   
    76   73   74 1   
    77   73   75 1   
    78   73   78 1   
    79   74   80 1   
    80   74   81 1   
    81   74   82 1   
    82   75   79 1   
    83   83   84 1   
    84   83   91 1   
    85   84   85 1   
    86   84   87 1   
    87   84   92 1   
    88   85   86 2   
    89   85  102 1   
    90   87   88 1   
    91   87   89 1   
    92   87   93 1   
    93   88   90 1   
    94   88   94 1   
    95   88   95 1   
    96   89   96 1   
    97   89   97 1   
    98   89   98 1   
    99   90   99 1   
   100   90  100 1   
   101   90  101 1   
   102  102  103 1   
   103  102  110 1   
   104  103  104 1   
   105  103  106 1   
   106  103  111 1   
   107  104  105 2   
   108  104  114 1   
   109  106  107 1   
   110  106  112 1   
   111  106  113 1   
   112  107  108 1   
   113  107  109 1   
   114  114  115 1   
   115  114  125 1   
   116  115  116 1   
   117  115  118 1   
   118  115  126 1   
   119  116  117 2   
   120  116  134 1   
   121  118  119 1   
   122  118  127 1   
   123  118  128 1   
   124  119  120 ar  
   125  119  121 ar  
   126  120  122 ar  
   127  120  129 1   
   128  121  123 ar  
   129  121  130 1   
   130  122  124 ar  
   131  122  131 1   
   132  123  124 ar  
   133  123  132 1   
   134  124  133 1   
   135  134  135 1   
   136  134  140 1   
   137  135  136 1   
   138  135  138 1   
   139  135  141 1   
   140  136  137 2   
   141  136  148 1   
   142  138  139 1   
   143  138  142 1   
   144  138  143 1   
   145  139  140 1   
   146  139  144 1   
   147  139  145 1   
   148  140  146 1   
   149  140  147 1   
   150  148  149 1   
   151  148  157 1   
   152  149  150 1   
   153  149  152 1   
   154  149  158 1   
   155  150  151 2   
   156  150  163 1   
   157  152  153 1   
   158  152  159 1   
   159  152  160 1   
   160  153  154 1   
   161  153  161 1   
   162  153  162 1   
   163  154  155 1   
   164  154  156 1   
   165  163  164 1   
   166  163  168 1   
   167  164  165 1   
   168  164  166 1   
   169  164  167 1   
   170  170  171 1   
   171  170  172 1   
   172  173  174 1   
   173  173  175 1   
   174  176  177 1   
   175  176  178 1   
@<TRIPOS>SUBSTRUCTURE
     1 MOL         1 TEMP              0 ****  ****    0 ROOT
