@<TRIPOS>MOLECULE
MOL
  182   178     1     0     0
SMALL
resp


@<TRIPOS>ATOM
      1 C1          0.6830   -3.8170    6.0390 c3        1 MOL     -0.451816
      2 C2          0.9040   -3.6520    4.5200 c         1 MOL      0.759632
      3 O1         -0.0850   -3.6530    3.7180 o         1 MOL     -0.626318
      4 H1          1.4990   -4.4030    6.4620 hc        1 MOL      0.133294
      5 H2          0.6570   -2.8360    6.5120 hc        1 MOL      0.133294
      6 H3         -0.2620   -4.3320    6.2160 hc        1 MOL      0.133294
      7 N1          2.1410   -3.4920    4.0460 n         1 MOL     -0.676799
      8 C3          2.4160   -3.0400    2.6680 c3        1 MOL      0.224848
      9 C4          2.3890   -4.2720    1.7160 c         1 MOL      0.529027
     10 O2          2.7140   -5.4170    2.1390 o         1 MOL     -0.562692
     11 C5          3.6420   -2.1780    2.5970 c3        1 MOL     -0.261446
     12 C6          3.7320   -1.3530    1.4080 c         1 MOL      0.674233
     13 O3          4.0190   -0.1290    1.6320 o         1 MOL     -0.743384
     14 O4          3.4680   -1.7610    0.2720 o         1 MOL     -0.743384
     15 H4          2.8920   -3.8050    4.6390 hn        1 MOL      0.351833
     16 H5          1.5890   -2.3620    2.4240 h1        1 MOL     -0.067480
     17 H6          4.4290   -2.9390    2.5540 hc        1 MOL      0.092676
     18 H7          3.6410   -1.5990    3.5160 hc        1 MOL      0.092676
     19 N2          2.1170   -4.1780    0.3900 n         1 MOL     -0.242150
     20 C7          2.0920   -5.2650   -0.5890 c3        1 MOL     -0.035651
     21 C8          3.2800   -5.1710   -1.6000 c         1 MOL      0.455762
     22 O5          3.5120   -6.1200   -2.3420 o         1 MOL     -0.534571
     23 C9          0.7170   -5.3090   -1.3720 c3        1 MOL     -0.059263
     24 C10        -0.4220   -6.0090   -0.6470 c3        1 MOL      0.153746
     25 C11        -1.5970   -6.1880   -1.6480 c3        1 MOL      0.076189
     26 C12        -2.7770   -6.8930   -1.0650 c3        1 MOL     -0.071295
     27 N3         -3.8390   -7.0570   -2.1060 n4        1 MOL     -0.103427
     28 H8          2.0230   -3.2790   -0.0740 hn        1 MOL      0.322513
     29 H9          2.3090   -6.2030   -0.0810 h1        1 MOL      0.106510
     30 H10         0.9280   -5.8990   -2.2640 hc        1 MOL      0.004447
     31 H11         0.3530   -4.3360   -1.7100 hc        1 MOL      0.004447
     32 H12        -0.7280   -5.3630    0.1720 hc        1 MOL     -0.019686
     33 H13        -0.1330   -6.9640   -0.2070 hc        1 MOL     -0.019686
     34 H14        -1.1800   -6.7470   -2.4850 hc        1 MOL     -0.003597
     35 H15        -1.9050   -5.1960   -1.9680 hc        1 MOL     -0.003597
     36 H16        -3.2180   -6.2330   -0.3160 hx        1 MOL      0.095279
     37 H17        -2.3460   -7.7960   -0.6310 hx        1 MOL      0.095279
     38 H18        -4.2690   -6.1900   -2.3950 hn        1 MOL      0.214579
     39 H19        -3.4490   -7.3710   -2.9850 hn        1 MOL      0.214579
     40 H20        -4.6190   -7.6310   -1.8320 hn        1 MOL      0.214579
     41 N4          4.0330   -3.9990   -1.7150 n         1 MOL     -0.122113
     42 C13         5.2500   -3.8050   -2.4870 c3        1 MOL      0.170338
     43 C14         6.5480   -3.5090   -1.6520 c         1 MOL      0.305540
     44 O6          7.6800   -3.7110   -2.1070 o         1 MOL     -0.476067
     45 C15         5.0480   -2.7570   -3.5580 c3        1 MOL     -0.570847
     46 C16         4.3260   -1.4760   -3.0110 c         1 MOL      0.963699
     47 O7          4.9470   -0.7040   -2.2340 o         1 MOL     -0.818117
     48 O8          3.0730   -1.3300   -3.1630 o         1 MOL     -0.818117
     49 H21         3.8390   -3.2280   -1.0800 hn        1 MOL     -0.100437
     50 H22         5.3710   -4.7430   -3.0420 h1        1 MOL      0.100357
     51 H23         4.5240   -3.3220   -4.3340 hc        1 MOL      0.162651
     52 H24         6.0490   -2.4920   -3.9130 hc        1 MOL      0.162651
     53 N5          6.3800   -3.1250   -0.3610 n         1 MOL     -0.249156
     54 C17         7.4160   -2.6160    0.5100 c3        1 MOL      0.115125
     55 C18         7.6390   -1.0820    0.6530 c         1 MOL      0.464631
     56 O9          8.4550   -0.7410    1.4780 o         1 MOL     -0.535989
     57 H25         5.4340   -3.0710   -0.0230 hn        1 MOL      0.189802
     58 H26         8.3660   -3.0960    0.2460 h1        1 MOL      0.044642
     59 H27         7.3430   -3.0610    1.4980 h1        1 MOL      0.044642
     60 N6          6.9660   -0.1740   -0.0940 n         1 MOL     -0.385670
     61 C19         7.3100    1.2790   -0.1600 c3        1 MOL      0.270324
     62 C20         6.0660    2.1340   -0.4080 c         1 MOL      0.475599
     63 O10         5.0420    1.8080   -0.8410 o         1 MOL     -0.436555
     64 C21         8.3460    1.6000   -1.2820 c3        1 MOL     -0.375559
     65 C22         9.7100    0.8850   -1.0900 c         1 MOL      0.662606
     66 N7         10.7190    1.6790   -0.7610 n         1 MOL     -0.770940
     67 O11         9.9280   -0.3030   -1.3750 o         1 MOL     -0.521865
     68 H28         6.3340   -0.4920   -0.8070 hn        1 MOL      0.372629
     69 H29         7.6950    1.7160    0.7540 h1        1 MOL     -0.006234
     70 H30         8.5380    2.6580   -1.4160 hc        1 MOL      0.084723
     71 H31         7.9380    1.1300   -2.1790 hc        1 MOL      0.084723
     72 H32        10.4720    2.6490   -0.6490 hn        1 MOL      0.361333
     73 H33        11.6660    1.3270   -0.7530 hn        1 MOL      0.361333
     74 N8          6.2790    3.4180   -0.1250 n         1 MOL     -0.345655
     75 C23         5.4080    4.6010   -0.5060 c3        1 MOL     -0.330267
     76 C24         4.1960    4.7180    0.4040 c         1 MOL      0.717081
     77 O12         4.3580    4.5290    1.6120 o         1 MOL     -0.537325
     78 H34         7.0780    3.7010    0.4270 hn        1 MOL      0.289420
     79 H35         4.9840    4.3080   -1.4660 h1        1 MOL      0.139952
     80 H36         5.9510    5.5350   -0.3550 h1        1 MOL      0.139952
     81 N9          2.9650    5.0440   -0.0760 n         1 MOL     -0.691565
     82 C25         1.7170    4.8910    0.6770 c3        1 MOL      0.501779
     83 C26         1.4220    3.4080    0.9210 c         1 MOL      0.623935
     84 O13         2.0240    2.6020    0.2630 o         1 MOL     -0.590946
     85 C27         0.6110    5.5460   -0.1330 c3        1 MOL     -0.273708
     86 C28         0.6930    7.1350   -0.3070 ca        1 MOL      0.101851
     87 C29         0.4030    7.6410   -1.5830 ca        1 MOL     -0.208152
     88 C30         0.8480    7.9990    0.7880 ca        1 MOL     -0.208152
     89 C31         0.2910    9.0750   -1.7740 ca        1 MOL     -0.187955
     90 C32         0.6320    9.3980    0.5990 ca        1 MOL     -0.187955
     91 C33         0.4150    9.9790   -0.6980 ca        1 MOL      0.256874
     92 O14         0.2590   11.3010   -0.8360 oh        1 MOL     -0.429661
     93 H37         2.9290    5.2550   -1.0700 hn        1 MOL      0.272629
     94 H38         1.9450    5.4010    1.6090 h1        1 MOL     -0.009175
     95 H39        -0.2910    5.3250    0.4300 hc        1 MOL      0.068314
     96 H40         0.5210    4.9920   -1.0610 hc        1 MOL      0.068314
     97 H41         0.2410    6.9490   -2.4000 ha        1 MOL      0.141231
     98 H42         0.9960    7.6180    1.7910 ha        1 MOL      0.141231
     99 H43         0.2120    9.4360   -2.7870 ha        1 MOL      0.138259
    100 H44         0.6260   10.0900    1.4240 ha        1 MOL      0.138259
    101 H45         0.0680   11.5900   -1.7260 ho        1 MOL      0.361265
    102 N10         0.5490    3.1060    1.8580 n         1 MOL     -0.857876
    103 C34         0.1430    1.8190    2.4430 c3        1 MOL      0.432509
    104 C35        -0.1200    0.7000    1.4120 c         1 MOL      0.442771
    105 O15         0.7980    0.2720    0.7790 o         1 MOL     -0.335447
    106 C36         1.2300    1.3450    3.3830 c3        1 MOL      0.075983
    107 C37         0.8690    0.0560    4.2350 c3        1 MOL      0.005822
    108 C38         1.6390    2.3920    4.4090 c3        1 MOL     -0.380121
    109 C39        -0.4960    0.0100    5.0120 c3        1 MOL     -0.347533
    110 H46         0.1720    3.9510    2.2750 hn        1 MOL      0.334103
    111 H47        -0.7840    1.9720    2.9960 h1        1 MOL      0.007354
    112 H48         2.1270    1.0420    2.8320 hc        1 MOL      0.101362
    113 H49         1.6460   -0.2050    4.9660 hc        1 MOL      0.067687
    114 H50         0.7700   -0.7720    3.5380 hc        1 MOL      0.067687
    115 H51         2.1600    1.9170    5.2370 hc        1 MOL      0.095261
    116 H52         2.4130    3.0250    3.9710 hc        1 MOL      0.095261
    117 H53         0.7860    2.9370    4.8110 hc        1 MOL      0.095261
    118 H54        -1.3490    0.3230    4.4060 hc        1 MOL      0.076364
    119 H55        -0.5100   -1.0650    5.2200 hc        1 MOL      0.076364
    120 H56        -0.4430    0.6280    5.9020 hc        1 MOL      0.076364
    121 N11        -1.3940    0.1850    1.3170 n         1 MOL     -0.671696
    122 C40        -1.7510   -0.9380    0.3190 c3        1 MOL      0.117799
    123 C41        -3.2280   -0.8930   -0.1090 c         1 MOL      0.583125
    124 O16        -3.5310   -1.8410   -0.8220 o         1 MOL     -0.552566
    125 C42        -1.4160   -2.2780    0.9610 c3        1 MOL      0.573494
    126 O17        -2.0640   -2.4450    2.1600 oh        1 MOL     -0.678401
    127 H57        -2.1520    0.5890    1.8440 hn        1 MOL      0.332699
    128 H58        -1.1510   -0.9280   -0.5810 h1        1 MOL     -0.046727
    129 H59        -0.3320   -2.3730    1.0830 h1        1 MOL     -0.127689
    130 H60        -1.7020   -3.0730    0.2720 h1        1 MOL     -0.127689
    131 H61        -1.3550   -2.7860    2.7170 ho        1 MOL      0.429148
    132 N12        -4.0870    0.0310    0.2850 n         1 MOL     -0.482803
    133 C43        -5.4040   -0.0310   -0.1830 c3        1 MOL      0.062718
    134 C44        -5.5090    0.3550   -1.6890 c         1 MOL      0.513274
    135 O18        -4.5490    0.9560   -2.2650 o         1 MOL     -0.570708
    136 C45        -6.1930    0.9380    0.6970 c3        1 MOL     -0.054731
    137 H62        -3.7880    0.7140    0.9610 hn        1 MOL      0.288259
    138 H63        -5.8550   -1.0180   -0.0800 h1        1 MOL      0.093489
    139 H64        -5.6390    1.8600    0.8880 hc        1 MOL      0.034986
    140 H65        -7.1900    1.1540    0.3100 hc        1 MOL      0.034986
    141 H66        -6.2460    0.5250    1.7040 hc        1 MOL      0.034986
    142 N13        -6.5870    0.1010   -2.4040 n         1 MOL     -0.473905
    143 C46        -7.8660   -0.4290   -1.8870 c3        1 MOL      0.222139
    144 C47        -9.0930    0.1490   -2.5880 c         1 MOL      0.457522
    145 O19        -8.9450    0.6950   -3.7250 o         1 MOL     -0.557162
    146 C48        -7.8430   -1.9440   -2.0470 c3        1 MOL     -0.445307
    147 H67        -6.6340    0.4140   -3.3670 hn        1 MOL      0.320432
    148 H68        -8.0710   -0.2930   -0.8220 h1        1 MOL      0.021761
    149 H69        -7.0600   -2.4970   -1.5280 hc        1 MOL      0.126608
    150 H70        -8.8200   -2.2900   -1.6880 hc        1 MOL      0.126608
    151 H71        -7.8940   -2.0930   -3.1270 hc        1 MOL      0.126608
    152 N14       -10.2950    0.3150   -2.0420 n         1 MOL     -0.348538
    153 C49       -10.6320   -0.0590   -0.6790 c3        1 MOL     -0.229339
    154 C50       -10.0800    0.9650    0.3400 c         1 MOL      0.505511
    155 O20        -9.7470    0.6050    1.4420 o         1 MOL     -0.518161
    156 C51       -12.1680   -0.1710   -0.6280 c3        1 MOL      0.017653
    157 C52       -12.7120   -0.5640    0.7720 c3        1 MOL     -0.290113
    158 C53       -14.2780   -0.7380    0.9180 c         1 MOL      0.716307
    159 O21       -14.9560    0.1770    1.4520 o         1 MOL     -0.660930
    160 O22       -14.8070   -1.8020    0.5030 o         1 MOL     -0.660930
    161 H72       -11.0060    0.7120   -2.6460 hn        1 MOL      0.288563
    162 H73       -10.2890   -1.0740   -0.4740 h1        1 MOL      0.160369
    163 H74       -12.5100   -0.9620   -1.2960 hc        1 MOL      0.040766
    164 H75       -12.6340    0.7570   -0.9690 hc        1 MOL      0.040766
    165 H76       -12.2970    0.1390    1.4940 hc        1 MOL      0.070428
    166 H77       -12.2470   -1.5090    1.0430 hc        1 MOL      0.070428
    167 N15        -9.9030    2.2190   -0.1070 n         1 MOL     -0.236750
    168 C54        -9.4070    3.3770    0.7060 c3        1 MOL     -0.127806
    169 H78        -9.0780    3.0210    1.6820 h1        1 MOL      0.081050
    170 H79        -8.5710    3.8510    0.1910 h1        1 MOL      0.081050
    171 H80       -10.2120    4.1010    0.8370 h1        1 MOL      0.081050
    172 H81       -10.1490    2.3930   -1.0760 hn        1 MOL      0.225201
    173 Ca1         2.6330    0.4280   -1.1110 Ca        1 MOL      1.720633
    174 O23         2.9640    2.2020   -2.9860 oh        1 MOL     -0.862447
    175 H82         2.8940    3.1530   -2.9430 ho        1 MOL      0.425620
    176 H83         3.2030    2.0210   -3.8940 ho        1 MOL      0.425620
    177 O24         1.0750   -1.9700   -1.5660 oh        1 MOL     -0.862447
    178 H84         0.2260   -2.2760   -1.8870 ho        1 MOL      0.425620
    179 H85         1.6000   -1.8680   -2.3620 ho        1 MOL      0.425620
    180 O25         0.1740    1.2460   -1.9070 oh        1 MOL     -0.862447
    181 H86        -0.4710    0.5710   -2.1190 ho        1 MOL      0.425620
    182 H87        -0.2700    2.0680   -2.1160 ho        1 MOL      0.425620
@<TRIPOS>BOND
     1    1    2 1   
     2    1    4 1   
     3    1    5 1   
     4    1    6 1   
     5    2    3 2   
     6    2    7 1   
     7    7    8 1   
     8    7   15 1   
     9    8    9 1   
    10    8   11 1   
    11    8   16 1   
    12    9   10 2   
    13    9   19 1   
    14   11   12 1   
    15   11   17 1   
    16   11   18 1   
    17   12   13 1   
    18   12   14 1   
    19   19   20 1   
    20   19   28 1   
    21   20   21 1   
    22   20   23 1   
    23   20   29 1   
    24   21   22 2   
    25   21   41 1   
    26   23   24 1   
    27   23   30 1   
    28   23   31 1   
    29   24   25 1   
    30   24   32 1   
    31   24   33 1   
    32   25   26 1   
    33   25   34 1   
    34   25   35 1   
    35   26   27 1   
    36   26   36 1   
    37   26   37 1   
    38   27   38 1   
    39   27   39 1   
    40   27   40 1   
    41   41   42 1   
    42   41   49 1   
    43   42   43 1   
    44   42   45 1   
    45   42   50 1   
    46   43   44 2   
    47   43   53 1   
    48   45   46 1   
    49   45   51 1   
    50   45   52 1   
    51   46   47 1   
    52   46   48 1   
    53   53   54 1   
    54   53   57 1   
    55   54   55 1   
    56   54   58 1   
    57   54   59 1   
    58   55   56 2   
    59   55   60 1   
    60   60   61 1   
    61   60   68 1   
    62   61   62 1   
    63   61   64 1   
    64   61   69 1   
    65   62   63 2   
    66   62   74 1   
    67   64   65 1   
    68   64   70 1   
    69   64   71 1   
    70   65   66 1   
    71   65   67 2   
    72   66   72 1   
    73   66   73 1   
    74   74   75 1   
    75   74   78 1   
    76   75   76 1   
    77   75   79 1   
    78   75   80 1   
    79   76   77 2   
    80   76   81 1   
    81   81   82 1   
    82   81   93 1   
    83   82   83 1   
    84   82   85 1   
    85   82   94 1   
    86   83   84 2   
    87   83  102 1   
    88   85   86 1   
    89   85   95 1   
    90   85   96 1   
    91   86   87 ar  
    92   86   88 ar  
    93   87   89 ar  
    94   87   97 1   
    95   88   90 ar  
    96   88   98 1   
    97   89   91 ar  
    98   89   99 1   
    99   90   91 ar  
   100   90  100 1   
   101   91   92 1   
   102   92  101 1   
   103  102  103 1   
   104  102  110 1   
   105  103  104 1   
   106  103  106 1   
   107  103  111 1   
   108  104  105 2   
   109  104  121 1   
   110  106  107 1   
   111  106  108 1   
   112  106  112 1   
   113  107  109 1   
   114  107  113 1   
   115  107  114 1   
   116  108  115 1   
   117  108  116 1   
   118  108  117 1   
   119  109  118 1   
   120  109  119 1   
   121  109  120 1   
   122  121  122 1   
   123  121  127 1   
   124  122  123 1   
   125  122  125 1   
   126  122  128 1   
   127  123  124 2   
   128  123  132 1   
   129  125  126 1   
   130  125  129 1   
   131  125  130 1   
   132  126  131 1   
   133  132  133 1   
   134  132  137 1   
   135  133  134 1   
   136  133  136 1   
   137  133  138 1   
   138  134  135 2   
   139  134  142 1   
   140  136  139 1   
   141  136  140 1   
   142  136  141 1   
   143  142  143 1   
   144  142  147 1   
   145  143  144 1   
   146  143  146 1   
   147  143  148 1   
   148  144  145 2   
   149  144  152 1   
   150  146  149 1   
   151  146  150 1   
   152  146  151 1   
   153  152  153 1   
   154  152  161 1   
   155  153  154 1   
   156  153  156 1   
   157  153  162 1   
   158  154  155 2   
   159  154  167 1   
   160  156  157 1   
   161  156  163 1   
   162  156  164 1   
   163  157  158 1   
   164  157  165 1   
   165  157  166 1   
   166  158  159 1   
   167  158  160 1   
   168  167  168 1   
   169  167  172 1   
   170  168  169 1   
   171  168  170 1   
   172  168  171 1   
   173  174  175 1   
   174  174  176 1   
   175  177  178 1   
   176  177  179 1   
   177  180  181 1   
   178  180  182 1   
@<TRIPOS>SUBSTRUCTURE
     1 MOL         1 TEMP              0 ****  ****    0 ROOT
