@<TRIPOS>MOLECULE
MOL
  192   187     1     0     0
SMALL
resp


@<TRIPOS>ATOM
      1 C1          9.0410    0.7350    2.1680 c3        1 MOL     -0.675444
      2 C2          7.9840    0.3420    1.1730 c         1 MOL      0.985092
      3 O1          6.7970    0.2140    1.5730 o         1 MOL     -0.717156
      4 H1          8.5840    1.3080    2.9760 hc        1 MOL      0.166379
      5 H2          9.5070   -0.1610    2.5780 hc        1 MOL      0.166379
      6 H3          9.7970    1.3460    1.6740 hc        1 MOL      0.166379
      7 N1          8.2820    0.1570   -0.1060 n         1 MOL     -0.823870
      8 C3          7.2410   -0.0630   -1.1180 c3        1 MOL      0.269866
      9 C4          6.7560   -1.5160   -1.3840 c         1 MOL      0.336255
     10 O2          6.4420   -1.9220   -2.5020 o         1 MOL     -0.466032
     11 C5          7.6450    0.6190   -2.4100 c3        1 MOL     -0.114893
     12 C6          8.2440    1.9970   -2.2080 c         1 MOL      0.700895
     13 O3          7.7900    2.7370   -1.2740 o         1 MOL     -0.635315
     14 O4          9.1660    2.3390   -2.9860 o         1 MOL     -0.635315
     15 H4          9.2560    0.2060   -0.3590 hn        1 MOL      0.367794
     16 H5          6.3820    0.4960   -0.7570 h1        1 MOL      0.056339
     17 H6          6.8090    0.7210   -3.0970 hc        1 MOL      0.031292
     18 H7          8.4540    0.1300   -2.9480 hc        1 MOL      0.031292
     19 N2          6.6080   -2.2510   -0.3170 n         1 MOL     -0.148216
     20 C7          6.2030   -3.6550   -0.2680 c3        1 MOL     -0.252369
     21 C8          4.7900   -3.8770   -0.9060 c         1 MOL      0.616192
     22 O5          4.5350   -4.8390   -1.6570 o         1 MOL     -0.541424
     23 C9          6.4750   -4.1060    1.1760 c3        1 MOL      0.062980
     24 C10         7.9390   -4.0460    1.6160 c3        1 MOL     -0.029654
     25 C11         8.0590   -4.6170    3.0000 c3        1 MOL      0.020080
     26 C12         9.5050   -4.8580    3.4420 c3        1 MOL      0.061376
     27 N3          9.5300   -5.2900    4.8380 n4        1 MOL     -0.163438
     28 H8          7.0030   -1.8320    0.5230 hn        1 MOL      0.178383
     29 H9          6.9440   -4.2000   -0.8500 h1        1 MOL      0.119714
     30 H10         6.3140   -5.1770    1.1940 hc        1 MOL      0.023714
     31 H11         5.7990   -3.7520    1.9610 hc        1 MOL      0.023714
     32 H12         8.3800   -3.0460    1.6030 hc        1 MOL      0.015394
     33 H13         8.4650   -4.7460    0.9640 hc        1 MOL      0.015394
     34 H14         7.5140   -5.5640    3.0480 hc        1 MOL      0.008283
     35 H15         7.6490   -3.7770    3.5700 hc        1 MOL      0.008283
     36 H16        10.0750   -3.9260    3.3360 hx        1 MOL      0.060759
     37 H17         9.9500   -5.6300    2.8080 hx        1 MOL      0.060759
     38 H18         9.0620   -4.6970    5.5100 hn        1 MOL      0.238242
     39 H19         9.0130   -6.1460    4.9210 hn        1 MOL      0.238242
     40 H20        10.4380   -5.6300    5.1550 hn        1 MOL      0.238242
     41 N4          3.7780   -3.0260   -0.5220 n         1 MOL     -0.496411
     42 C13         3.8110   -1.9730    0.4610 c3        1 MOL      0.196936
     43 C14         3.7890   -0.5380   -0.0080 c         1 MOL      0.022658
     44 O6          3.6620   -0.3550   -1.2220 o         1 MOL     -0.289527
     45 C15         2.6210   -2.2310    1.4420 c3        1 MOL     -0.329810
     46 C16         1.2080   -2.0840    0.7540 c         1 MOL      0.782004
     47 O7          1.0030   -1.2970   -0.2360 o         1 MOL     -0.682381
     48 O8          0.2230   -2.7100    1.1720 o         1 MOL     -0.682381
     49 H21         2.9550   -3.1770   -1.0800 hn        1 MOL      0.357999
     50 H22         4.6390   -1.9360    1.1720 h1        1 MOL      0.115075
     51 H23         2.6030   -1.4920    2.2420 hc        1 MOL      0.055341
     52 H24         2.6730   -3.2520    1.8340 hc        1 MOL      0.055341
     53 N5          3.9810    0.4730    0.9170 n         1 MOL     -0.167532
     54 C17         4.0780    1.9090    0.5720 c3        1 MOL      0.100181
     55 C18         2.9160    2.6500   -0.1070 c         1 MOL      0.361499
     56 O9          1.8460    2.1180   -0.0250 o         1 MOL     -0.436254
     57 H25         4.0740    0.3220    1.9080 hn        1 MOL      0.239665
     58 H26         5.0160    2.0270    0.0230 h1        1 MOL      0.040111
     59 H27         4.3270    2.3810    1.5250 h1        1 MOL      0.040111
     60 N6          3.1420    3.8420   -0.7300 n         1 MOL     -0.429940
     61 C19         2.0920    4.7300   -1.3240 c3        1 MOL      0.144197
     62 C20         2.2230    6.2350   -0.9820 c         1 MOL      0.474828
     63 O10         3.2520    6.7150   -0.4870 o         1 MOL     -0.546757
     64 C21         2.0420    4.4980   -2.8980 c3        1 MOL     -0.189980
     65 C22         1.4390    3.1430   -3.3020 c         1 MOL      0.712898
     66 O11         2.0180    2.5050   -4.2030 o         1 MOL     -0.683960
     67 O12         0.2430    2.8710   -2.9150 o         1 MOL     -0.683960
     68 H28         4.0730    4.2340   -0.7760 hn        1 MOL      0.291719
     69 H29         1.1940    4.3690   -0.8120 h1        1 MOL      0.075727
     70 H30         2.9320    4.8130   -3.4370 hc        1 MOL      0.060143
     71 H31         1.2570    5.1860   -3.2110 hc        1 MOL      0.060143
     72 N7          1.2530    7.1200   -1.0600 n         1 MOL     -0.464644
     73 C23        -0.2250    6.8890   -1.3590 c3        1 MOL     -0.019800
     74 C24        -0.8470    6.1780   -0.2150 c         1 MOL      0.629093
     75 O13        -0.4140    6.2820    0.9500 o         1 MOL     -0.538278
     76 H32         1.5800    8.0700   -1.0720 hn        1 MOL      0.322744
     77 H33        -0.2860    6.2990   -2.2760 h1        1 MOL      0.057356
     78 H34        -0.7080    7.8580   -1.4730 h1        1 MOL      0.057356
     79 N8         -1.8900    5.4730   -0.5210 n         1 MOL     -0.709227
     80 C25        -2.5740    4.7020    0.5360 c3        1 MOL      0.325138
     81 C26        -1.8750    3.4490    0.9860 c         1 MOL      0.732505
     82 O14        -1.3100    2.7890    0.1110 o         1 MOL     -0.676531
     83 C27        -4.0430    4.3940    0.0300 c3        1 MOL      0.163119
     84 C28        -4.9630    3.5940    1.0340 c3        1 MOL     -0.348495
     85 O15        -4.1770    3.6870   -1.2160 oh        1 MOL     -0.582585
     86 H35        -2.2140    5.5030   -1.4740 hn        1 MOL      0.366529
     87 H36        -2.7290    5.3030    1.4250 h1        1 MOL     -0.024383
     88 H37        -4.4140    5.4070   -0.1220 h1        1 MOL      0.038339
     89 H38        -5.0860    3.6930   -1.5400 ho        1 MOL      0.413268
     90 H39        -5.0580    4.0910    1.9980 hc        1 MOL      0.083381
     91 H40        -5.9480    3.5800    0.5670 hc        1 MOL      0.083381
     92 H41        -4.5970    2.5790    1.1630 hc        1 MOL      0.083381
     93 N9         -1.9100    3.1270    2.2900 n         1 MOL     -0.578391
     94 C29        -1.2140    2.0410    2.9360 c3        1 MOL      0.004961
     95 C30        -1.5420    0.6780    2.3150 c         1 MOL      0.688236
     96 O16        -0.9790    0.3260    1.3290 o         1 MOL     -0.498125
     97 C31         0.3740    2.2320    3.0440 c3        1 MOL      0.515821
     98 C32         0.8880    3.6370    3.2800 c3        1 MOL     -0.467770
     99 C33         0.9810    1.3200    4.0810 c3        1 MOL     -0.524011
    100 C34         0.2730    4.3760    4.4950 c3        1 MOL     -0.030291
    101 H42        -2.2480    3.8810    2.8550 hn        1 MOL      0.301450
    102 H43        -1.5450    2.0780    3.9790 h1        1 MOL      0.010091
    103 H44         0.8010    1.9570    2.0750 hc        1 MOL     -0.153438
    104 H45         0.6420    4.2040    2.3750 hc        1 MOL      0.168566
    105 H46         1.9520    3.6000    3.5250 hc        1 MOL      0.168566
    106 H47         0.3760    1.2130    4.9760 hc        1 MOL      0.121286
    107 H48         0.9710    0.3300    3.6130 hc        1 MOL      0.121286
    108 H49         1.9780    1.5630    4.4430 hc        1 MOL      0.121286
    109 H50         0.4930    3.9780    5.4800 hc        1 MOL      0.012981
    110 H51         0.5340    5.4320    4.4680 hc        1 MOL      0.012981
    111 H52        -0.8050    4.4550    4.3490 hc        1 MOL      0.012981
    112 N10        -2.3940   -0.1400    2.9750 n         1 MOL     -0.656529
    113 C35        -2.8020   -1.5040    2.6060 c3        1 MOL      0.065576
    114 C36        -4.2740   -1.6080    2.4640 c         1 MOL      0.520444
    115 O17        -4.7630   -2.6450    2.1930 o         1 MOL     -0.588528
    116 C37        -2.3510   -2.4790    3.6490 c3        1 MOL      0.551088
    117 C38        -2.7980   -2.2380    5.1260 c3        1 MOL     -0.321718
    118 O18        -0.9840   -2.5140    3.5830 oh        1 MOL     -0.663414
    119 H53        -2.9410    0.2340    3.7340 hn        1 MOL      0.309293
    120 H54        -2.3450   -1.7510    1.6540 h1        1 MOL      0.082192
    121 H55        -2.7480   -3.4390    3.3080 h1        1 MOL     -0.064588
    122 H56        -0.7170   -2.5660    2.6710 ho        1 MOL      0.382432
    123 H57        -2.2950   -1.3390    5.4660 hc        1 MOL      0.066139
    124 H58        -3.8720   -2.1050    5.2280 hc        1 MOL      0.066139
    125 H59        -2.4420   -3.1760    5.5610 hc        1 MOL      0.066139
    126 N11        -5.0830   -0.5790    2.6040 n         1 MOL     -0.273310
    127 C39        -6.5500   -0.6470    2.3270 c3        1 MOL      0.077175
    128 C40        -6.9440   -0.8680    0.8630 c         1 MOL      0.303142
    129 O19        -7.1390    0.0850    0.0500 o         1 MOL     -0.488256
    130 C41        -7.2310    0.6360    2.8350 c3        1 MOL      0.603320
    131 C42        -8.7510    0.6820    2.9410 c3        1 MOL     -0.571436
    132 O20        -6.7900    1.0410    4.0890 oh        1 MOL     -0.653101
    133 H60        -4.6710    0.2600    2.9710 hn        1 MOL      0.148446
    134 H61        -6.9830   -1.4940    2.8700 h1        1 MOL      0.032521
    135 H62        -6.9350    1.4680    2.1900 h1        1 MOL     -0.072217
    136 H63        -6.8920    1.9960    4.0350 ho        1 MOL      0.398818
    137 H64        -9.0770    1.7040    3.1260 hc        1 MOL      0.127311
    138 H65        -9.3300    0.4370    2.0420 hc        1 MOL      0.127311
    139 H66        -9.0280    0.1240    3.8340 hc        1 MOL      0.127311
    140 N12        -7.0630   -2.1320    0.4890 n         1 MOL     -0.467296
    141 C43        -6.6650   -2.5930   -0.8440 c3        1 MOL      0.109020
    142 C44        -5.2610   -2.2120   -1.2890 c         1 MOL      0.490239
    143 O21        -4.7860   -1.0680   -1.0480 o         1 MOL     -0.463912
    144 C45        -7.5980   -2.1910   -2.0100 c3        1 MOL     -0.191275
    145 C46        -8.9130   -2.9900   -1.9970 c3        1 MOL     -0.054888
    146 C47        -9.9290   -2.6920   -0.9340 c3        1 MOL     -0.024623
    147 C48       -10.2300   -1.2340   -0.8280 c3        1 MOL      0.064831
    148 N13       -11.4420   -1.0000   -0.0350 n4        1 MOL     -0.391318
    149 H67        -6.8370   -2.8120    1.2050 hn        1 MOL      0.321822
    150 H68        -6.8140   -3.6540   -0.6700 h1        1 MOL      0.069696
    151 H69        -7.0540   -2.4050   -2.9360 hc        1 MOL      0.107796
    152 H70        -7.6950   -1.1150   -2.1150 hc        1 MOL      0.107796
    153 H71        -8.6550   -4.0440   -2.0790 hc        1 MOL      0.046981
    154 H72        -9.3180   -2.8090   -2.9840 hc        1 MOL      0.046981
    155 H73        -9.5790   -3.1170    0.0090 hc        1 MOL      0.031537
    156 H74       -10.7730   -3.3560   -1.1650 hc        1 MOL      0.031537
    157 H75       -10.3310   -0.8850   -1.8590 hx        1 MOL      0.082043
    158 H76        -9.3990   -0.7190   -0.3630 hx        1 MOL      0.082043
    159 H77       -11.3870   -1.5600    0.8050 hn        1 MOL      0.294831
    160 H78       -11.5130   -0.0260    0.2330 hn        1 MOL      0.294831
    161 H79       -12.3080   -1.0870   -0.5420 hn        1 MOL      0.294831
    162 N14        -4.5890   -3.1710   -1.9450 n         1 MOL     -0.387706
    163 C49        -3.2940   -3.1060   -2.6010 c3        1 MOL      0.062149
    164 C50        -2.0630   -2.8710   -1.6550 c         1 MOL      0.325113
    165 O22        -1.4990   -1.7620   -1.7700 o         1 MOL     -0.478794
    166 C51        -3.1730   -4.3350   -3.5650 c3        1 MOL     -0.066489
    167 C52        -1.7480   -4.5170   -4.1570 c3        1 MOL     -0.147811
    168 C53        -1.4860   -3.3500   -5.0470 c         1 MOL      0.739121
    169 O23        -2.1960   -3.2380   -6.0750 o         1 MOL     -0.726125
    170 O24        -0.7110   -2.4740   -4.6260 o         1 MOL     -0.726125
    171 H80        -5.1050   -4.0370   -1.9820 hn        1 MOL      0.208104
    172 H81        -3.3320   -2.3270   -3.3710 h1        1 MOL      0.152324
    173 H82        -3.9440   -4.3100   -4.3300 hc        1 MOL      0.017200
    174 H83        -3.4030   -5.2750   -3.0590 hc        1 MOL      0.017200
    175 H84        -1.5960   -5.4410   -4.7080 hc        1 MOL      0.027879
    176 H85        -0.9400   -4.5170   -3.4180 hc        1 MOL      0.027879
    177 N15        -1.6460   -3.7420   -0.7710 n         1 MOL     -0.176692
    178 C54        -2.1670   -5.1660   -0.5610 c3        1 MOL     -0.089581
    179 H86        -2.0520   -5.7340   -1.4850 h1        1 MOL      0.054755
    180 H87        -1.5980   -5.6480    0.2340 h1        1 MOL      0.054755
    181 H88        -3.2200   -5.1310   -0.2860 h1        1 MOL      0.054755
    182 H89        -0.9670   -3.4200   -0.1030 hn        1 MOL      0.232397
    183 Ca1        -0.2960    0.7470   -1.3650 Ca        1 MOL      1.787016
    184 O25        -2.9800    1.0020   -1.2490 oh        1 MOL     -0.923311
    185 H90        -3.6410    1.6830   -1.1090 ho        1 MOL      0.431837
    186 H91        -3.4780    0.1910   -1.3280 ho        1 MOL      0.431837
    187 O26         1.5590    0.1110   -3.1420 oh        1 MOL     -0.923311
    188 H92         1.7900    0.7590   -3.8060 ho        1 MOL      0.431837
    189 H93         2.1120   -0.6440   -3.3340 ho        1 MOL      0.431837
    190 O27        -1.3340    0.1120   -3.6910 oh        1 MOL     -0.923311
    191 H94        -1.0270   -0.7940   -3.7550 ho        1 MOL      0.431837
    192 H95        -0.8960    0.5680   -4.4070 ho        1 MOL      0.431837
@<TRIPOS>BOND
     1    1    2 1   
     2    1    4 1   
     3    1    5 1   
     4    1    6 1   
     5    2    3 2   
     6    2    7 1   
     7    7    8 1   
     8    7   15 1   
     9    8    9 1   
    10    8   11 1   
    11    8   16 1   
    12    9   10 2   
    13    9   19 1   
    14   11   12 1   
    15   11   17 1   
    16   11   18 1   
    17   12   13 1   
    18   12   14 1   
    19   19   20 1   
    20   19   28 1   
    21   20   21 1   
    22   20   23 1   
    23   20   29 1   
    24   21   22 2   
    25   21   41 1   
    26   23   24 1   
    27   23   30 1   
    28   23   31 1   
    29   24   25 1   
    30   24   32 1   
    31   24   33 1   
    32   25   26 1   
    33   25   34 1   
    34   25   35 1   
    35   26   27 1   
    36   26   36 1   
    37   26   37 1   
    38   27   38 1   
    39   27   39 1   
    40   27   40 1   
    41   41   42 1   
    42   41   49 1   
    43   42   43 1   
    44   42   45 1   
    45   42   50 1   
    46   43   44 2   
    47   43   53 1   
    48   45   46 1   
    49   45   51 1   
    50   45   52 1   
    51   46   47 1   
    52   46   48 1   
    53   53   54 1   
    54   53   57 1   
    55   54   55 1   
    56   54   58 1   
    57   54   59 1   
    58   55   56 2   
    59   55   60 1   
    60   60   61 1   
    61   60   68 1   
    62   61   62 1   
    63   61   64 1   
    64   61   69 1   
    65   62   63 2   
    66   62   72 1   
    67   64   65 1   
    68   64   70 1   
    69   64   71 1   
    70   65   66 1   
    71   65   67 1   
    72   72   73 1   
    73   72   76 1   
    74   73   74 1   
    75   73   77 1   
    76   73   78 1   
    77   74   75 2   
    78   74   79 1   
    79   79   80 1   
    80   79   86 1   
    81   80   81 1   
    82   80   83 1   
    83   80   87 1   
    84   81   82 2   
    85   81   93 1   
    86   83   84 1   
    87   83   85 1   
    88   83   88 1   
    89   84   90 1   
    90   84   91 1   
    91   84   92 1   
    92   85   89 1   
    93   93   94 1   
    94   93  101 1   
    95   94   95 1   
    96   94   97 1   
    97   94  102 1   
    98   95   96 2   
    99   95  112 1   
   100   97   98 1   
   101   97   99 1   
   102   97  103 1   
   103   98  100 1   
   104   98  104 1   
   105   98  105 1   
   106   99  106 1   
   107   99  107 1   
   108   99  108 1   
   109  100  109 1   
   110  100  110 1   
   111  100  111 1   
   112  112  113 1   
   113  112  119 1   
   114  113  114 1   
   115  113  116 1   
   116  113  120 1   
   117  114  115 2   
   118  114  126 1   
   119  116  117 1   
   120  116  118 1   
   121  116  121 1   
   122  117  123 1   
   123  117  124 1   
   124  117  125 1   
   125  118  122 1   
   126  126  127 1   
   127  126  133 1   
   128  127  128 1   
   129  127  130 1   
   130  127  134 1   
   131  128  129 2   
   132  128  140 1   
   133  130  131 1   
   134  130  132 1   
   135  130  135 1   
   136  131  137 1   
   137  131  138 1   
   138  131  139 1   
   139  132  136 1   
   140  140  141 1   
   141  140  149 1   
   142  141  142 1   
   143  141  144 1   
   144  141  150 1   
   145  142  143 2   
   146  142  162 1   
   147  144  145 1   
   148  144  151 1   
   149  144  152 1   
   150  145  146 1   
   151  145  153 1   
   152  145  154 1   
   153  146  147 1   
   154  146  155 1   
   155  146  156 1   
   156  147  148 1   
   157  147  157 1   
   158  147  158 1   
   159  148  159 1   
   160  148  160 1   
   161  148  161 1   
   162  162  163 1   
   163  162  171 1   
   164  163  164 1   
   165  163  166 1   
   166  163  172 1   
   167  164  165 2   
   168  164  177 1   
   169  166  167 1   
   170  166  173 1   
   171  166  174 1   
   172  167  168 1   
   173  167  175 1   
   174  167  176 1   
   175  168  169 1   
   176  168  170 1   
   177  177  178 1   
   178  177  182 1   
   179  178  179 1   
   180  178  180 1   
   181  178  181 1   
   182  184  185 1   
   183  184  186 1   
   184  187  188 1   
   185  187  189 1   
   186  190  191 1   
   187  190  192 1   
@<TRIPOS>SUBSTRUCTURE
     1 MOL         1 TEMP              0 ****  ****    0 ROOT
