@<TRIPOS>MOLECULE
MOL
  189   185     1     0     0
SMALL
resp


@<TRIPOS>ATOM
      1 C1         12.5470    4.7770   -3.1580 c3        1 MOL     -0.296880
      2 C2         12.3410    3.6960   -2.0390 c         1 MOL      0.515562
      3 O1         12.9620    2.6010   -2.0150 o         1 MOL     -0.568204
      4 H1         13.2010    4.3760   -3.9330 hc        1 MOL      0.085217
      5 H2         11.5830    5.0360   -3.5960 hc        1 MOL      0.085217
      6 H3         13.0010    5.6680   -2.7240 hc        1 MOL      0.085217
      7 N1         11.5580    4.0110   -1.0460 n         1 MOL     -0.077655
      8 C3         11.3160    3.1930    0.1330 c3        1 MOL     -0.321926
      9 C4         10.0290    2.3220   -0.0450 c         1 MOL      0.462776
     10 O2          9.0490    2.8290   -0.6050 o         1 MOL     -0.595154
     11 C5         11.2550    4.0700    1.4390 c3        1 MOL      0.014843
     12 C6         10.2530    5.2560    1.4380 c         1 MOL      0.678051
     13 O3          9.3460    5.2490    0.6540 o         1 MOL     -0.702930
     14 O4         10.3180    6.1550    2.3210 o         1 MOL     -0.702930
     15 H4         10.9800    4.8350   -1.1130 hn        1 MOL      0.110417
     16 H5         12.1370    2.4750    0.1990 h1        1 MOL      0.138837
     17 H6         12.2490    4.5000    1.4480 hc        1 MOL      0.045966
     18 H7         11.0860    3.4710    2.3380 hc        1 MOL      0.045966
     19 N2          9.9510    1.1440    0.4890 n         1 MOL     -0.368914
     20 C7          8.7740    0.2850    0.3290 c3        1 MOL      0.123222
     21 C8          7.6610    0.6180    1.3200 c         1 MOL      0.658082
     22 O5          7.9450    0.7290    2.5350 o         1 MOL     -0.516280
     23 C9          9.2410   -1.1260    0.5190 c3        1 MOL     -0.257895
     24 C10         8.4190   -2.0290   -0.4320 c3        1 MOL      0.256697
     25 C11         8.8930   -3.4470   -0.4070 c3        1 MOL     -0.168658
     26 C12         8.7450   -4.1030   -1.8050 c3        1 MOL     -0.034017
     27 N3          7.3320   -4.2210   -2.3030 n4        1 MOL     -0.358583
     28 H8         10.7520    0.8560    1.0270 hn        1 MOL      0.296755
     29 H9          8.3680    0.3250   -0.6770 h1        1 MOL      0.084496
     30 H10         9.0050   -1.4120    1.5440 hc        1 MOL      0.081439
     31 H11        10.3110   -1.2220    0.3340 hc        1 MOL      0.081439
     32 H12         8.5570   -1.6960   -1.4610 hc        1 MOL     -0.045141
     33 H13         7.3670   -1.9040   -0.1900 hc        1 MOL     -0.045141
     34 H14         8.3400   -4.0670    0.2970 hc        1 MOL      0.081957
     35 H15         9.9510   -3.3050   -0.1780 hc        1 MOL      0.081957
     36 H16         9.1230   -5.1210   -1.7050 hx        1 MOL      0.104002
     37 H17         9.3780   -3.5400   -2.4900 hx        1 MOL      0.104002
     38 H18         7.3820   -4.7430   -3.1670 hn        1 MOL      0.305507
     39 H19         6.8860   -4.7720   -1.5720 hn        1 MOL      0.305507
     40 H20         6.9060   -3.3120   -2.3550 hn        1 MOL      0.305507
     41 N4          6.4550    0.5610    0.8010 n         1 MOL     -0.914941
     42 C13         5.2170    0.3550    1.5080 c3        1 MOL      0.703177
     43 C14         4.2060   -0.2310    0.4940 c         1 MOL      0.384247
     44 O6          4.2620   -0.0690   -0.7360 o         1 MOL     -0.541040
     45 C15         4.6470    1.5710    2.1610 c3        1 MOL      0.184801
     46 C16         4.6780    2.7740    1.2340 c         1 MOL      0.563802
     47 O7          3.6750    2.9210    0.5400 o         1 MOL     -0.712883
     48 O8          5.7730    3.3260    0.9730 o         1 MOL     -0.712883
     49 H21         6.4000    0.5410   -0.2100 hn        1 MOL      0.246573
     50 H22         5.4270   -0.3560    2.3120 h1        1 MOL     -0.038627
     51 H23         5.2780    1.7100    3.0410 hc        1 MOL     -0.086890
     52 H24         3.6210    1.3270    2.4370 hc        1 MOL     -0.086890
     53 N5          3.0850   -0.7730    0.9690 n         1 MOL     -0.318851
     54 C17         2.6990   -1.1220    2.2940 c3        1 MOL     -0.207062
     55 C18         2.7800   -2.6100    2.4930 c         1 MOL      0.490584
     56 O9          3.0890   -3.3420    1.6190 o         1 MOL     -0.574656
     57 H25         2.4930   -1.1420    0.2400 hn        1 MOL      0.255148
     58 H26         1.7060   -0.6960    2.4160 h1        1 MOL      0.141588
     59 H27         3.4580   -0.7070    2.9610 h1        1 MOL      0.141588
     60 N6          2.3420   -3.0800    3.6650 n         1 MOL     -0.227959
     61 C19         2.3220   -4.4990    4.0440 c3        1 MOL     -0.048460
     62 C20         1.4370   -5.3370    3.0580 c         1 MOL      0.512180
     63 O10         1.8310   -6.4660    2.7740 o         1 MOL     -0.560762
     64 C21         1.8390   -4.6490    5.4950 c3        1 MOL     -0.257992
     65 C22         0.4930   -3.9780    5.7960 c         1 MOL      0.637513
     66 O11         0.5590   -2.6690    5.8260 o         1 MOL     -0.645551
     67 O12        -0.5900   -4.5960    5.7850 o         1 MOL     -0.645551
     68 H28         1.8900   -2.4090    4.2650 hn        1 MOL      0.156564
     69 H29         3.2610   -5.0490    3.9890 h1        1 MOL      0.085422
     70 H30         2.6280   -4.3350    6.1800 hc        1 MOL      0.072856
     71 H31         1.7370   -5.7170    5.6960 hc        1 MOL      0.072856
     72 N7          0.3560   -4.7520    2.4750 n         1 MOL     -0.128118
     73 C23        -0.6180   -5.5420    1.6770 c3        1 MOL     -0.224419
     74 C24        -0.3430   -5.4480    0.2020 c         1 MOL      0.597209
     75 O13        -1.0980   -6.0270   -0.6040 o         1 MOL     -0.594007
     76 H32         0.2160   -3.7800    2.6960 hn        1 MOL      0.211344
     77 H33        -1.5810   -5.0790    1.8540 h1        1 MOL      0.127871
     78 H34        -0.6640   -6.5500    2.1050 h1        1 MOL      0.127871
     79 N8          0.6170   -4.6750   -0.1860 n         1 MOL     -0.275257
     80 C25         0.7120   -4.1580   -1.5350 c3        1 MOL      0.085247
     81 C26         0.4500   -2.7010   -1.5230 c         1 MOL      0.469813
     82 O14         0.8130   -2.0090   -0.5430 o         1 MOL     -0.473494
     83 C27         2.0680   -4.4860   -2.1190 c3        1 MOL      0.328566
     84 C28         2.5620   -5.8870   -2.3500 c3        1 MOL     -0.369307
     85 O15         2.0890   -3.9200   -3.3730 oh        1 MOL     -0.615575
     86 H35         1.2380   -4.2410    0.4800 hn        1 MOL      0.143324
     87 H36        -0.1020   -4.6310   -2.0870 h1        1 MOL      0.050116
     88 H37         2.8250   -4.0150   -1.4810 h1        1 MOL     -0.014974
     89 H38         2.8870   -4.1950   -3.8140 ho        1 MOL      0.373036
     90 H39         3.6480   -5.8690   -2.4810 hc        1 MOL      0.091182
     91 H40         2.2820   -6.5650   -1.5420 hc        1 MOL      0.091182
     92 H41         2.0350   -6.2460   -3.2370 hc        1 MOL      0.091182
     93 N9         -0.2980   -2.1820   -2.5210 n         1 MOL     -0.282950
     94 C29        -0.7520   -0.7420   -2.6040 c3        1 MOL     -0.212602
     95 C30        -2.0990   -0.5820   -1.9070 c         1 MOL      0.559747
     96 O16        -2.3530    0.4470   -1.2400 o         1 MOL     -0.506922
     97 C31        -0.6020   -0.1990   -4.0740 c3        1 MOL      0.265956
     98 C32         0.6710   -0.5540   -4.8430 c3        1 MOL      0.048679
     99 C33        -0.9210    1.3200   -4.0640 c3        1 MOL     -0.605403
    100 C34         1.9650   -0.2490   -4.0090 c3        1 MOL     -0.137682
    101 H42        -0.6870   -2.8790   -3.1390 hn        1 MOL      0.246661
    102 H43        -0.1370   -0.1290   -1.9490 h1        1 MOL      0.163016
    103 H44        -1.3920   -0.6160   -4.6920 hc        1 MOL     -0.015006
    104 H45         0.6670   -0.1580   -5.8600 hc        1 MOL     -0.029309
    105 H46         0.7280   -1.6370   -4.8920 hc        1 MOL     -0.029309
    106 H47        -0.2630    1.7950   -3.3320 hc        1 MOL      0.171620
    107 H48        -0.9670    1.6160   -5.1050 hc        1 MOL      0.171620
    108 H49        -1.9310    1.4450   -3.6700 hc        1 MOL      0.171620
    109 H50         1.8070    0.7700   -3.6580 hc        1 MOL      0.031584
    110 H51         2.1250   -0.9130   -3.1700 hc        1 MOL      0.031584
    111 H52         2.8580   -0.1930   -4.6440 hc        1 MOL      0.031584
    112 N10        -2.9700   -1.6200   -2.0310 n         1 MOL     -0.475696
    113 C35        -4.2040   -1.7240   -1.1850 c3        1 MOL     -0.010672
    114 C36        -5.4450   -2.1620   -1.9680 c         1 MOL      0.575662
    115 O17        -5.3960   -3.0220   -2.8200 o         1 MOL     -0.553672
    116 C37        -4.1890   -2.7010    0.0380 c3        1 MOL      0.444756
    117 C38        -4.1520   -4.1390   -0.3030 c3        1 MOL     -0.194040
    118 O18        -3.1750   -2.2480    0.8560 oh        1 MOL     -0.608238
    119 H53        -2.6930   -2.4070   -2.5910 hn        1 MOL      0.276489
    120 H54        -4.4800   -0.6970   -0.9360 h1        1 MOL      0.037987
    121 H55        -5.1300   -2.6270    0.5930 h1        1 MOL     -0.046924
    122 H56        -3.4540   -1.4390    1.2820 ho        1 MOL      0.395880
    123 H57        -5.1300   -4.4900   -0.6430 hc        1 MOL      0.051803
    124 H58        -3.3930   -4.3760   -1.0480 hc        1 MOL      0.051803
    125 H59        -3.8630   -4.6300    0.6340 hc        1 MOL      0.051803
    126 N11        -6.6040   -1.6410   -1.5870 n         1 MOL     -0.441629
    127 C39        -7.9300   -1.9170   -2.1470 c3        1 MOL     -0.014978
    128 C40        -8.9180   -0.7450   -2.1980 c         1 MOL      0.564867
    129 O19        -9.2850   -0.2590   -3.2860 o         1 MOL     -0.536012
    130 C41        -8.5430   -3.1580   -1.3970 c3        1 MOL      0.243895
    131 C42        -9.9720   -3.4980   -1.8600 c3        1 MOL     -0.439205
    132 O20        -8.4450   -2.9110   -0.0150 oh        1 MOL     -0.621865
    133 H60        -6.5630   -0.9960   -0.8060 hn        1 MOL      0.249350
    134 H61        -7.8140   -2.2780   -3.1740 h1        1 MOL      0.093125
    135 H62        -7.9260   -4.0280   -1.6280 h1        1 MOL      0.071186
    136 H63        -8.7210   -3.6720    0.5150 ho        1 MOL      0.427996
    137 H64       -10.0180   -3.6510   -2.9350 hc        1 MOL      0.117501
    138 H65       -10.3660   -4.3920   -1.3870 hc        1 MOL      0.117501
    139 H66       -10.6450   -2.6490   -1.8350 hc        1 MOL      0.117501
    140 N12        -9.2930   -0.3300   -0.9660 n         1 MOL     -0.413392
    141 C43       -10.0070    0.9080   -0.6280 c3        1 MOL      0.059551
    142 C44        -9.2700    1.5430    0.4850 c         1 MOL      0.543376
    143 O21        -9.0100    0.8160    1.4420 o         1 MOL     -0.515922
    144 C45       -11.5540    0.7130   -0.3870 c3        1 MOL     -0.271467
    145 C46       -12.2520    2.0640   -0.2750 c3        1 MOL      0.173094
    146 C47       -13.8260    1.8710   -0.1430 c3        1 MOL      0.041861
    147 C48       -14.4390    3.2370   -0.1960 c3        1 MOL      0.126398
    148 N13       -15.9470    3.0330   -0.0870 n4        1 MOL     -0.257183
    149 H67        -9.0520   -0.8750   -0.1470 hn        1 MOL      0.279530
    150 H68        -9.9500    1.6000   -1.4760 h1        1 MOL      0.045754
    151 H69       -11.7840    0.1740    0.5220 hc        1 MOL      0.094988
    152 H70       -11.9550    0.1530   -1.2300 hc        1 MOL      0.094988
    153 H71       -11.9820    2.6830   -1.1350 hc        1 MOL     -0.044571
    154 H72       -11.7930    2.6010    0.5540 hc        1 MOL     -0.044571
    155 H73       -14.1140    1.4990    0.8330 hc        1 MOL     -0.003741
    156 H74       -14.3090    1.1890   -0.8460 hc        1 MOL     -0.003741
    157 H75       -14.1750    3.7150   -1.1410 hx        1 MOL      0.039533
    158 H76       -13.9520    3.8260    0.5760 hx        1 MOL      0.039533
    159 H77       -16.5420    3.8250   -0.3110 hn        1 MOL      0.269855
    160 H78       -16.2510    2.3520   -0.7710 hn        1 MOL      0.269855
    161 H79       -16.3710    2.8220    0.8050 hn        1 MOL      0.269855
    162 N14        -9.0090    2.8400    0.4470 n         1 MOL     -0.523377
    163 C49        -8.3320    3.5040    1.6270 c3        1 MOL      0.298721
    164 C50        -6.8510    3.2590    1.5200 c         1 MOL      0.338731
    165 O22        -6.2300    2.7850    2.5250 o         1 MOL     -0.527788
    166 C51        -8.6480    5.0190    1.6440 c3        1 MOL      0.054536
    167 C52       -10.0770    5.0920    2.1610 c3        1 MOL     -0.284137
    168 C53       -10.5260    6.5430    2.1420 c         1 MOL      0.655992
    169 O23       -11.6020    6.8640    1.5490 o         1 MOL     -0.674264
    170 O24        -9.7970    7.4080    2.7120 o         1 MOL     -0.674264
    171 H80        -9.2820    3.3350   -0.3840 hn        1 MOL      0.323937
    172 H81        -8.6530    3.1540    2.6180 h1        1 MOL      0.035688
    173 H82        -8.6720    5.2860    0.5920 hc        1 MOL      0.028259
    174 H83        -7.9610    5.6160    2.2470 hc        1 MOL      0.028259
    175 H84       -10.1750    4.7610    3.1970 hc        1 MOL      0.068048
    176 H85       -10.7790    4.4760    1.6030 hc        1 MOL      0.068048
    177 N15        -6.1430    3.2920    0.3810 n         1 MOL     -0.334862
    178 C54        -6.4120    4.0060   -0.9080 c3        1 MOL     -0.046343
    179 H86        -5.6980    3.6750   -1.6620 h1        1 MOL      0.042192
    180 H87        -7.4240    3.7820   -1.2440 h1        1 MOL      0.042192
    181 H88        -6.3080    5.0810   -0.7570 h1        1 MOL      0.042192
    182 H89        -5.2120    2.8960    0.3630 hn        1 MOL      0.299450
    183 Ca1         7.1840    4.6400   -0.6780 Ca        1 MOL      1.721171
    184 O25         4.5140    4.8030   -1.3920 oh        1 MOL     -0.904588
    185 H90         3.8670    5.4820   -1.1660 ho        1 MOL      0.443383
    186 H91         4.2350    4.0410   -0.8870 ho        1 MOL      0.443383
    187 O26         6.3350    2.3410   -1.7970 oh        1 MOL     -0.904588
    188 H92         5.5250    1.8480   -1.6670 ho        1 MOL      0.443383
    189 H93         6.5520    2.2100   -2.7210 ho        1 MOL      0.443383
@<TRIPOS>BOND
     1    1    2 1   
     2    1    4 1   
     3    1    5 1   
     4    1    6 1   
     5    2    3 2   
     6    2    7 1   
     7    7    8 1   
     8    7   15 1   
     9    8    9 1   
    10    8   11 1   
    11    8   16 1   
    12    9   10 2   
    13    9   19 1   
    14   11   12 1   
    15   11   17 1   
    16   11   18 1   
    17   12   13 1   
    18   12   14 1   
    19   19   20 1   
    20   19   28 1   
    21   20   21 1   
    22   20   23 1   
    23   20   29 1   
    24   21   22 2   
    25   21   41 1   
    26   23   24 1   
    27   23   30 1   
    28   23   31 1   
    29   24   25 1   
    30   24   32 1   
    31   24   33 1   
    32   25   26 1   
    33   25   34 1   
    34   25   35 1   
    35   26   27 1   
    36   26   36 1   
    37   26   37 1   
    38   27   38 1   
    39   27   39 1   
    40   27   40 1   
    41   41   42 1   
    42   41   49 1   
    43   42   43 1   
    44   42   45 1   
    45   42   50 1   
    46   43   44 2   
    47   43   53 1   
    48   45   46 1   
    49   45   51 1   
    50   45   52 1   
    51   46   47 1   
    52   46   48 1   
    53   53   54 1   
    54   53   57 1   
    55   54   55 1   
    56   54   58 1   
    57   54   59 1   
    58   55   56 2   
    59   55   60 1   
    60   60   61 1   
    61   60   68 1   
    62   61   62 1   
    63   61   64 1   
    64   61   69 1   
    65   62   63 2   
    66   62   72 1   
    67   64   65 1   
    68   64   70 1   
    69   64   71 1   
    70   65   66 1   
    71   65   67 1   
    72   72   73 1   
    73   72   76 1   
    74   73   74 1   
    75   73   77 1   
    76   73   78 1   
    77   74   75 2   
    78   74   79 1   
    79   79   80 1   
    80   79   86 1   
    81   80   81 1   
    82   80   83 1   
    83   80   87 1   
    84   81   82 2   
    85   81   93 1   
    86   83   84 1   
    87   83   85 1   
    88   83   88 1   
    89   84   90 1   
    90   84   91 1   
    91   84   92 1   
    92   85   89 1   
    93   93   94 1   
    94   93  101 1   
    95   94   95 1   
    96   94   97 1   
    97   94  102 1   
    98   95   96 2   
    99   95  112 1   
   100   97   98 1   
   101   97   99 1   
   102   97  103 1   
   103   98  100 1   
   104   98  104 1   
   105   98  105 1   
   106   99  106 1   
   107   99  107 1   
   108   99  108 1   
   109  100  109 1   
   110  100  110 1   
   111  100  111 1   
   112  112  113 1   
   113  112  119 1   
   114  113  114 1   
   115  113  116 1   
   116  113  120 1   
   117  114  115 2   
   118  114  126 1   
   119  116  117 1   
   120  116  118 1   
   121  116  121 1   
   122  117  123 1   
   123  117  124 1   
   124  117  125 1   
   125  118  122 1   
   126  126  127 1   
   127  126  133 1   
   128  127  128 1   
   129  127  130 1   
   130  127  134 1   
   131  128  129 2   
   132  128  140 1   
   133  130  131 1   
   134  130  132 1   
   135  130  135 1   
   136  131  137 1   
   137  131  138 1   
   138  131  139 1   
   139  132  136 1   
   140  140  141 1   
   141  140  149 1   
   142  141  142 1   
   143  141  144 1   
   144  141  150 1   
   145  142  143 2   
   146  142  162 1   
   147  144  145 1   
   148  144  151 1   
   149  144  152 1   
   150  145  146 1   
   151  145  153 1   
   152  145  154 1   
   153  146  147 1   
   154  146  155 1   
   155  146  156 1   
   156  147  148 1   
   157  147  157 1   
   158  147  158 1   
   159  148  159 1   
   160  148  160 1   
   161  148  161 1   
   162  162  163 1   
   163  162  171 1   
   164  163  164 1   
   165  163  166 1   
   166  163  172 1   
   167  164  165 2   
   168  164  177 1   
   169  166  167 1   
   170  166  173 1   
   171  166  174 1   
   172  167  168 1   
   173  167  175 1   
   174  167  176 1   
   175  168  169 1   
   176  168  170 1   
   177  177  178 1   
   178  177  182 1   
   179  178  179 1   
   180  178  180 1   
   181  178  181 1   
   182  184  185 1   
   183  184  186 1   
   184  187  188 1   
   185  187  189 1   
@<TRIPOS>SUBSTRUCTURE
     1 MOL         1 TEMP              0 ****  ****    0 ROOT
