@<TRIPOS>MOLECULE
MOL
  186   183     1     0     0
SMALL
resp


@<TRIPOS>ATOM
      1 C1         -6.7460   -3.8280   -3.5480 c3        1 MOL     -0.401043
      2 C2         -6.7550   -3.0520   -2.1640 c         1 MOL      0.824556
      3 O1         -5.8130   -3.0590   -1.3940 o         1 MOL     -0.682484
      4 H1         -5.8530   -4.4500   -3.6100 hc        1 MOL      0.092524
      5 H2         -7.6320   -4.4590   -3.6170 hc        1 MOL      0.092524
      6 H3         -6.7450   -3.1100   -4.3690 hc        1 MOL      0.092524
      7 N1         -7.8100   -2.3120   -2.0230 n         1 MOL     -0.620989
      8 C3         -7.8860   -1.1410   -1.1110 c3        1 MOL      0.342477
      9 C4         -6.5810   -0.3470   -1.1160 c         1 MOL      0.234136
     10 O2         -5.8740   -0.3190   -0.0950 o         1 MOL     -0.603566
     11 C5         -8.4290   -1.5440    0.2740 c3        1 MOL     -0.304570
     12 C6         -7.7750   -2.8230    0.8290 c         1 MOL      0.868488
     13 O3         -6.6880   -2.6350    1.4360 o         1 MOL     -0.763080
     14 O4         -8.3300   -3.9470    0.8060 o         1 MOL     -0.763080
     15 H4         -8.5460   -2.3700   -2.7210 hn        1 MOL      0.306220
     16 H5         -8.6280   -0.4490   -1.5230 h1        1 MOL     -0.001190
     17 H6         -9.4780   -1.8550    0.1940 hc        1 MOL      0.051549
     18 H7         -8.2500   -0.6690    0.8960 hc        1 MOL      0.051549
     19 N2         -6.1850    0.1540   -2.3100 n         1 MOL     -0.290011
     20 C7         -5.2930    1.2540   -2.4350 c3        1 MOL      0.134001
     21 C8         -5.7680    2.5250   -1.6720 c         1 MOL      0.249577
     22 O5         -5.7810    3.6040   -2.3180 o         1 MOL     -0.522897
     23 C9         -3.7690    0.8930   -2.0980 c3        1 MOL     -0.011007
     24 C10        -2.6650    1.9900   -2.3420 c3        1 MOL      0.327239
     25 C11        -3.4620   -0.4530   -2.8730 c3        1 MOL     -0.498111
     26 C12        -2.5960    2.3780   -3.7680 c3        1 MOL     -0.348185
     27 H8         -6.7550   -0.0640   -3.1170 hn        1 MOL      0.234718
     28 H9         -5.2530    1.5870   -3.4690 h1        1 MOL      0.032886
     29 H10        -3.6850    0.5920   -1.0540 hc        1 MOL      0.097664
     30 H11        -1.6910    1.5930   -2.0670 hc        1 MOL     -0.031737
     31 H12        -2.8300    2.8960   -1.7680 hc        1 MOL     -0.031737
     32 H13        -4.1040   -1.2390   -2.5020 hc        1 MOL      0.113368
     33 H14        -3.5350   -0.2860   -3.9510 hc        1 MOL      0.113368
     34 H15        -2.4040   -0.7220   -2.8080 hc        1 MOL      0.113368
     35 H16        -1.6790    2.9670   -3.7810 hc        1 MOL      0.059487
     36 H17        -2.4730    1.4750   -4.3670 hc        1 MOL      0.059487
     37 H18        -3.4020    3.0340   -4.0850 hc        1 MOL      0.059487
     38 N3         -6.1890    2.4250   -0.4170 n         1 MOL     -0.148901
     39 C13        -6.6340    3.6620    0.2260 c3        1 MOL     -0.017937
     40 C14        -5.4990    4.7160    0.4510 c         1 MOL      0.547573
     41 O6         -5.7550    5.9000    0.2230 o         1 MOL     -0.554103
     42 C15        -7.2250    3.2400    1.6090 c3        1 MOL     -0.422413
     43 C16        -7.7210    4.4510    2.3600 c         1 MOL      0.846636
     44 O7         -7.0400    4.8370    3.2460 o         1 MOL     -0.766270
     45 O8         -8.8270    4.9430    2.0440 o         1 MOL     -0.766270
     46 H19        -6.1250    1.5480    0.0740 hn        1 MOL      0.314290
     47 H20        -7.4180    4.1670   -0.3370 h1        1 MOL      0.084387
     48 H21        -6.4620    2.7740    2.2290 hc        1 MOL      0.106188
     49 H22        -8.0860    2.5670    1.5490 hc        1 MOL      0.106188
     50 N4         -4.2970    4.3900    0.8630 n         1 MOL     -0.414151
     51 C17        -3.6740    3.1860    1.4570 c3        1 MOL      0.377843
     52 C18        -2.6090    3.5610    2.5660 c         1 MOL      0.533132
     53 O9         -2.3630    4.7260    2.9120 o         1 MOL     -0.572232
     54 H23        -3.6390    5.1570    0.8910 hn        1 MOL      0.222672
     55 H24        -3.1490    2.6530    0.6640 h1        1 MOL     -0.084447
     56 H25        -4.4620    2.6130    1.9370 h1        1 MOL     -0.084447
     57 N5         -2.0390    2.6140    3.3010 n         1 MOL     -0.554088
     58 C19        -2.1570    1.2000    3.2440 c3        1 MOL      0.358577
     59 C20        -1.9730    0.5110    1.8380 c         1 MOL      0.405597
     60 O10        -2.8590   -0.2380    1.3670 o         1 MOL     -0.509899
     61 C21        -3.4550    0.7530    3.9870 c3        1 MOL     -0.414993
     62 C22        -3.6610   -0.7570    4.1170 c         1 MOL      0.661696
     63 O11        -2.9540   -1.4470    4.8980 o         1 MOL     -0.680911
     64 O12        -4.3770   -1.3650    3.2190 o         1 MOL     -0.680911
     65 H26        -1.5300    3.0430    4.0650 hn        1 MOL      0.292994
     66 H27        -1.3750    0.7560    3.8590 h1        1 MOL      0.033253
     67 H28        -4.3390    1.2220    3.5410 hc        1 MOL      0.109736
     68 H29        -3.4340    1.1230    5.0090 hc        1 MOL      0.109736
     69 N6         -0.8550    0.7410    1.1120 n         1 MOL     -0.303102
     70 C23         0.3390    1.4470    1.4960 c3        1 MOL     -0.089145
     71 C24         0.6940    2.5530    0.4770 c         1 MOL      0.496536
     72 O13        -0.0570    3.0030   -0.4080 o         1 MOL     -0.456094
     73 H30        -0.8490    0.4210    0.1540 hn        1 MOL      0.203934
     74 H31         1.2170    0.8010    1.5610 h1        1 MOL      0.082619
     75 H32         0.3480    1.7980    2.5290 h1        1 MOL      0.082619
     76 N7          1.9570    3.0880    0.5650 n         1 MOL     -0.509473
     77 C25         2.4320    4.2250   -0.1550 c3        1 MOL      0.062331
     78 C26         2.7690    3.9790   -1.6380 c         1 MOL      0.375470
     79 O14         3.1040    4.9290   -2.3560 o         1 MOL     -0.509287
     80 C27         3.5220    4.8920    0.6700 c3        1 MOL     -0.001465
     81 C28         3.6930    6.3750    0.2330 c3        1 MOL     -0.130142
     82 C29         4.6520    7.0640    1.2090 c         1 MOL      0.639554
     83 N8          4.1490    7.6220    2.2570 n         1 MOL     -0.768612
     84 O15         5.8460    7.1180    0.9660 o         1 MOL     -0.588964
     85 H33         2.6270    2.5850    1.1290 hn        1 MOL      0.275251
     86 H34         1.6040    4.9340   -0.2410 h1        1 MOL      0.111224
     87 H35         4.4620    4.3600    0.5930 hc        1 MOL      0.008679
     88 H36         3.1970    4.8920    1.7100 hc        1 MOL      0.008679
     89 H37         2.8090    7.0150    0.1450 hc        1 MOL      0.056930
     90 H38         4.0840    6.5150   -0.7750 hc        1 MOL      0.056930
     91 H39         3.1730    7.4920    2.4850 hn        1 MOL      0.361109
     92 H40         4.7820    8.1390    2.8510 hn        1 MOL      0.361109
     93 N9          2.7660    2.7280   -2.0840 n         1 MOL     -0.028138
     94 C30         3.1910    2.2980   -3.3720 c3        1 MOL     -0.296854
     95 C31         4.5220    1.6470   -3.3760 c         1 MOL      0.585125
     96 O16         4.9310    1.1510   -4.4100 o         1 MOL     -0.536151
     97 C32         2.1610    1.3670   -4.1250 c3        1 MOL      0.204260
     98 C33         0.9890    2.2320   -4.5310 c3        1 MOL     -0.201265
     99 C34         1.7340    0.1480   -3.2700 c3        1 MOL     -0.201265
    100 H41         2.2610    2.0890   -1.4770 hn        1 MOL      0.082233
    101 H42         3.4000    3.1920   -3.9620 h1        1 MOL      0.151000
    102 H43         2.5170    0.9850   -5.0800 hc        1 MOL      0.028072
    103 H44         0.1990    1.6180   -4.9640 hc        1 MOL      0.050787
    104 H45         0.6150    2.7930   -3.6690 hc        1 MOL      0.050787
    105 H46         1.2460    2.9700   -5.2920 hc        1 MOL      0.050787
    106 H47         1.0970   -0.5140   -3.8410 hc        1 MOL      0.050787
    107 H48         2.6490   -0.4230   -3.1230 hc        1 MOL      0.050787
    108 H49         1.2990    0.4790   -2.3230 hc        1 MOL      0.050787
    109 N10         5.1910    1.4130   -2.1830 n         1 MOL     -0.364535
    110 C35         6.5880    0.9240   -2.0230 c3        1 MOL      0.000379
    111 C36         6.7120   -0.4870   -1.3380 c         1 MOL      0.466327
    112 O17         7.7680   -1.1360   -1.4220 o         1 MOL     -0.525500
    113 C37         7.3530    1.9010   -1.0320 c3        1 MOL     -0.235141
    114 C38         7.2470    3.3570   -1.5730 c         1 MOL      0.558547
    115 N11         7.1420    4.3630   -0.6790 n         1 MOL     -0.729646
    116 O18         7.2310    3.5630   -2.7760 o         1 MOL     -0.493555
    117 H50         4.7980    1.8510   -1.3670 hn        1 MOL      0.239555
    118 H51         7.0170    0.9860   -3.0240 h1        1 MOL      0.115619
    119 H52         8.3400    1.4930   -0.8430 hc        1 MOL      0.101292
    120 H53         6.8440    1.8570   -0.0640 hc        1 MOL      0.101292
    121 H54         7.2270    4.1850    0.3130 hn        1 MOL      0.353293
    122 H55         7.0510    5.3030   -1.0440 hn        1 MOL      0.353293
    123 N12         5.6670   -1.0160   -0.6070 n         1 MOL     -0.318140
    124 C39         5.7310   -2.2410    0.1040 c3        1 MOL      0.073908
    125 C40         4.3980   -2.9340    0.3380 c         1 MOL      0.552803
    126 O19         3.3350   -2.3270    0.3820 o         1 MOL     -0.493612
    127 C41         6.2030   -1.7820    1.5480 c3        1 MOL      0.092631
    128 C42         7.5450   -1.1990    1.8290 ca        1 MOL     -0.020052
    129 C43         7.6190    0.1870    2.0230 ca        1 MOL     -0.134610
    130 C44         8.7380   -1.9690    1.9180 ca        1 MOL     -0.134610
    131 C45         8.8650    0.8270    2.1900 ca        1 MOL     -0.233168
    132 C46         9.9990   -1.3560    1.9750 ca        1 MOL     -0.233168
    133 C47        10.0410    0.0660    2.1220 ca        1 MOL      0.326943
    134 O20        11.2350    0.7120    2.3220 oh        1 MOL     -0.542777
    135 H56         4.8270   -0.4720   -0.5780 hn        1 MOL      0.144487
    136 H57         6.4580   -2.9630   -0.2760 h1        1 MOL      0.051561
    137 H58         6.1540   -2.6590    2.1900 hc        1 MOL      0.010246
    138 H59         5.4470   -1.1250    1.9790 hc        1 MOL      0.010246
    139 H60         6.6840    0.7240    2.1070 ha        1 MOL      0.125029
    140 H61         8.7570   -3.0410    1.8010 ha        1 MOL      0.125029
    141 H62         8.9440    1.8800    2.4210 ha        1 MOL      0.123595
    142 H63        10.9510   -1.8650    2.0830 ha        1 MOL      0.123595
    143 H64        11.9690    0.1110    2.4680 ho        1 MOL      0.386389
    144 N13         4.4710   -4.2400    0.5250 n         1 MOL     -0.668128
    145 C48         3.3590   -5.2100    0.7400 c3        1 MOL     -0.039435
    146 C49         2.0280   -5.2080   -0.0860 c         1 MOL      0.245570
    147 O21         1.1790   -6.0590    0.1040 o         1 MOL     -0.468166
    148 C50         3.0860   -5.2450    2.2030 c3        1 MOL      0.345295
    149 C51         4.2080   -5.1690    3.2160 c3        1 MOL     -0.303173
    150 C52         3.7860   -5.3780    4.6970 c         1 MOL      0.699083
    151 O22         2.8360   -6.1260    4.9580 o         1 MOL     -0.714634
    152 O23         4.5400   -4.8230    5.5160 o         1 MOL     -0.714634
    153 H65         5.3900   -4.6420    0.5620 hn        1 MOL      0.349131
    154 H66         3.7230   -6.2350    0.5900 h1        1 MOL      0.073177
    155 H67         2.7050   -6.2380    2.4230 hc        1 MOL     -0.021787
    156 H68         2.1860   -4.6860    2.4490 hc        1 MOL     -0.021787
    157 H69         4.8090   -4.2620    3.1550 hc        1 MOL      0.019587
    158 H70         4.9560   -5.9240    2.9410 hc        1 MOL      0.019587
    159 N14         1.8800   -4.2680   -1.0250 n         1 MOL      0.090121
    160 C53         0.7430   -4.0860   -1.9360 c3        1 MOL     -0.357210
    161 C54         0.8490   -4.9030   -3.3220 c         1 MOL      0.452088
    162 O24        -0.1990   -5.0990   -3.9970 o         1 MOL     -0.501265
    163 C55         0.4740   -2.5820   -2.1310 c3        1 MOL     -0.111632
    164 C56         0.0300   -1.8750   -0.8850 c3        1 MOL     -0.308839
    165 C57        -1.3070   -2.4180   -0.2870 c         1 MOL      0.628372
    166 O25        -2.3370   -2.3230   -0.9050 o         1 MOL     -0.602945
    167 O26        -1.3930   -2.9170    0.8320 o         1 MOL     -0.602945
    168 H71         2.6400   -3.6040   -1.1020 hn        1 MOL      0.144988
    169 H72        -0.1690   -4.4610   -1.4730 h1        1 MOL      0.236257
    170 H73        -0.2590   -2.4720   -2.9220 hc        1 MOL      0.086620
    171 H74         1.4710   -2.2080   -2.3830 hc        1 MOL      0.086620
    172 H75        -0.0830   -0.8050   -1.0840 hc        1 MOL      0.102989
    173 H76         0.7580   -1.9530   -0.0650 hc        1 MOL      0.102989
    174 N15         2.0160   -5.5110   -3.6560 n         1 MOL     -0.199788
    175 C58         2.1990   -6.3860   -4.7900 c3        1 MOL     -0.280828
    176 H77         3.1800   -6.8570   -4.7300 h1        1 MOL      0.109737
    177 H78         1.4260   -7.1560   -4.7840 h1        1 MOL      0.109737
    178 H79         2.1300   -5.8070   -5.7110 h1        1 MOL      0.109737
    179 H80         2.8740   -5.2710   -3.1850 hn        1 MOL      0.203650
    180 Ca1        -4.2740   -2.4630    0.8030 Ca        1 MOL      1.741455
    181 O27        -4.1350   -4.8560   -0.1300 oh        1 MOL     -0.843672
    182 H81        -4.9700   -5.3090   -0.3000 ho        1 MOL      0.408936
    183 H82        -3.7080   -4.8180   -0.9920 ho        1 MOL      0.408936
    184 O28        -3.6670   -4.2010    2.8200 oh        1 MOL     -0.843672
    185 H83        -3.3890   -5.0890    2.5970 ho        1 MOL      0.408936
    186 H84        -4.0470   -4.2820    3.7020 ho        1 MOL      0.408936
@<TRIPOS>BOND
     1    1    2 1   
     2    1    4 1   
     3    1    5 1   
     4    1    6 1   
     5    2    3 2   
     6    2    7 1   
     7    7    8 1   
     8    7   15 1   
     9    8    9 1   
    10    8   11 1   
    11    8   16 1   
    12    9   10 2   
    13    9   19 1   
    14   11   12 1   
    15   11   17 1   
    16   11   18 1   
    17   12   13 1   
    18   12   14 1   
    19   19   20 1   
    20   19   27 1   
    21   20   21 1   
    22   20   23 1   
    23   20   28 1   
    24   21   22 2   
    25   21   38 1   
    26   23   24 1   
    27   23   25 1   
    28   23   29 1   
    29   24   26 1   
    30   24   30 1   
    31   24   31 1   
    32   25   32 1   
    33   25   33 1   
    34   25   34 1   
    35   26   35 1   
    36   26   36 1   
    37   26   37 1   
    38   38   39 1   
    39   38   46 1   
    40   39   40 1   
    41   39   42 1   
    42   39   47 1   
    43   40   41 2   
    44   40   50 1   
    45   42   43 1   
    46   42   48 1   
    47   42   49 1   
    48   43   44 1   
    49   43   45 1   
    50   50   51 1   
    51   50   54 1   
    52   51   52 1   
    53   51   55 1   
    54   51   56 1   
    55   52   53 2   
    56   52   57 1   
    57   57   58 1   
    58   57   65 1   
    59   58   59 1   
    60   58   61 1   
    61   58   66 1   
    62   59   60 2   
    63   59   69 1   
    64   61   62 1   
    65   61   67 1   
    66   61   68 1   
    67   62   63 1   
    68   62   64 1   
    69   69   70 1   
    70   69   73 1   
    71   70   71 1   
    72   70   74 1   
    73   70   75 1   
    74   71   72 2   
    75   71   76 1   
    76   76   77 1   
    77   76   85 1   
    78   77   78 1   
    79   77   80 1   
    80   77   86 1   
    81   78   79 2   
    82   78   93 1   
    83   80   81 1   
    84   80   87 1   
    85   80   88 1   
    86   81   82 1   
    87   81   89 1   
    88   81   90 1   
    89   82   83 1   
    90   82   84 2   
    91   83   91 1   
    92   83   92 1   
    93   93   94 1   
    94   93  100 1   
    95   94   95 1   
    96   94   97 1   
    97   94  101 1   
    98   95   96 2   
    99   95  109 1   
   100   97   98 1   
   101   97   99 1   
   102   97  102 1   
   103   98  103 1   
   104   98  104 1   
   105   98  105 1   
   106   99  106 1   
   107   99  107 1   
   108   99  108 1   
   109  109  110 1   
   110  109  117 1   
   111  110  111 1   
   112  110  113 1   
   113  110  118 1   
   114  111  112 2   
   115  111  123 1   
   116  113  114 1   
   117  113  119 1   
   118  113  120 1   
   119  114  115 1   
   120  114  116 2   
   121  115  121 1   
   122  115  122 1   
   123  123  124 1   
   124  123  135 1   
   125  124  125 1   
   126  124  127 1   
   127  124  136 1   
   128  125  126 2   
   129  125  144 1   
   130  127  128 1   
   131  127  137 1   
   132  127  138 1   
   133  128  129 ar  
   134  128  130 ar  
   135  129  131 ar  
   136  129  139 1   
   137  130  132 ar  
   138  130  140 1   
   139  131  133 ar  
   140  131  141 1   
   141  132  133 ar  
   142  132  142 1   
   143  133  134 1   
   144  134  143 1   
   145  144  145 1   
   146  144  153 1   
   147  145  146 1   
   148  145  148 1   
   149  145  154 1   
   150  146  147 2   
   151  146  159 1   
   152  148  149 1   
   153  148  155 1   
   154  148  156 1   
   155  149  150 1   
   156  149  157 1   
   157  149  158 1   
   158  150  151 1   
   159  150  152 1   
   160  159  160 1   
   161  159  168 1   
   162  160  161 1   
   163  160  163 1   
   164  160  169 1   
   165  161  162 2   
   166  161  174 1   
   167  163  164 1   
   168  163  170 1   
   169  163  171 1   
   170  164  165 1   
   171  164  172 1   
   172  164  173 1   
   173  165  166 1   
   174  165  167 1   
   175  174  175 1   
   176  174  179 1   
   177  175  176 1   
   178  175  177 1   
   179  175  178 1   
   180  181  182 1   
   181  181  183 1   
   182  184  185 1   
   183  184  186 1   
@<TRIPOS>SUBSTRUCTURE
     1 MOL         1 TEMP              0 ****  ****    0 ROOT
