@<TRIPOS>MOLECULE
MOL
  192   187     1     0     0
SMALL
resp


@<TRIPOS>ATOM
      1 C1          9.4960    0.9340    0.8080 c3        1 MOL     -0.536832
      2 C2          8.2120    0.2220    0.3620 c         1 MOL      0.754547
      3 O1          7.2250    0.1070    1.0820 o         1 MOL     -0.699904
      4 H1          9.2380    1.8040    1.4110 hc        1 MOL      0.144268
      5 H2         10.1050    0.2490    1.4000 hc        1 MOL      0.144268
      6 H3         10.0580    1.2540   -0.0700 hc        1 MOL      0.144268
      7 N1          8.1980   -0.3100   -0.8770 n         1 MOL     -0.506538
      8 C3          7.0210   -0.9420   -1.4900 c3        1 MOL     -0.078193
      9 C4          6.8000   -2.3650   -0.9600 c         1 MOL      0.668551
     10 O2          7.0620   -3.3720   -1.6380 o         1 MOL     -0.505158
     11 C5          7.0420   -0.7990   -3.0440 c3        1 MOL     -0.194847
     12 C6          8.2690   -1.3750   -3.7520 c         1 MOL      0.717087
     13 O3          9.3250   -0.7680   -3.5260 o         1 MOL     -0.639183
     14 O4          8.1470   -2.2650   -4.6320 o         1 MOL     -0.639183
     15 H4          9.1000   -0.6090   -1.2270 hn        1 MOL      0.263807
     16 H5          6.1460   -0.4220   -1.0910 h1        1 MOL      0.122796
     17 H6          7.0270    0.2710   -3.2130 hc        1 MOL      0.070402
     18 H7          6.1530   -1.2810   -3.4570 hc        1 MOL      0.070402
     19 N2          6.5460   -2.5530    0.3030 n         1 MOL     -0.581129
     20 C7          6.0970   -3.8170    0.9890 c3        1 MOL      0.097880
     21 C8          4.5770   -4.1350    0.6860 c         1 MOL      0.447004
     22 O5          4.2970   -5.2770    0.3320 o         1 MOL     -0.535954
     23 C9          6.3570   -3.6700    2.5000 c3        1 MOL      0.018208
     24 C10         7.9030   -3.5300    2.6600 c3        1 MOL     -0.011730
     25 C11         8.3030   -3.4630    4.0770 c3        1 MOL     -0.104669
     26 C12         9.8110   -3.2220    4.1930 c3        1 MOL      0.126441
     27 N3         10.0880   -2.8630    5.5990 n4        1 MOL     -0.272984
     28 H8          6.4130   -1.6630    0.7690 hn        1 MOL      0.381670
     29 H9          6.6810   -4.6750    0.6680 h1        1 MOL      0.086731
     30 H10         5.9480   -4.5730    2.9520 hc        1 MOL      0.003298
     31 H11         5.7830   -2.8410    2.8910 hc        1 MOL      0.003298
     32 H12         8.2300   -2.6100    2.1820 hc        1 MOL      0.031500
     33 H13         8.2520   -4.4170    2.1370 hc        1 MOL      0.031500
     34 H14         7.9730   -4.3970    4.5240 hc        1 MOL      0.042626
     35 H15         7.7540   -2.6690    4.5900 hc        1 MOL      0.042626
     36 H16        10.1500   -2.3800    3.5900 hx        1 MOL      0.056478
     37 H17        10.3880   -4.0350    3.7690 hx        1 MOL      0.056478
     38 H18         9.8850   -3.6390    6.2050 hn        1 MOL      0.243046
     39 H19        11.0340   -2.5160    5.6990 hn        1 MOL      0.243046
     40 H20         9.4550   -2.1300    5.8790 hn        1 MOL      0.243046
     41 N4          3.6020   -3.2540    0.5810 n         1 MOL     -0.360597
     42 C13         3.6710   -1.8330    1.1100 c3        1 MOL      0.183946
     43 C14         3.7430   -0.7650    0.0290 c         1 MOL      0.214826
     44 O6          3.6010   -1.0230   -1.1730 o         1 MOL     -0.453419
     45 C15         2.3710   -1.6300    1.9650 c3        1 MOL     -0.411694
     46 C16         0.9680   -1.9000    1.3560 c         1 MOL      0.802446
     47 O7          0.5630   -1.1750    0.4150 o         1 MOL     -0.696262
     48 O8          0.2070   -2.8300    1.8170 o         1 MOL     -0.696262
     49 H21         2.6970   -3.5350    0.2360 hn        1 MOL      0.344098
     50 H22         4.5720   -1.6290    1.6830 h1        1 MOL      0.057436
     51 H23         2.3170   -0.6350    2.4020 hc        1 MOL      0.081429
     52 H24         2.4930   -2.3680    2.7690 hc        1 MOL      0.081429
     53 N5          4.0510    0.4330    0.4830 n         1 MOL     -0.295742
     54 C17         4.3630    1.5660   -0.3670 c3        1 MOL     -0.040194
     55 C18         3.2470    2.2700   -1.0990 c         1 MOL      0.685370
     56 O9          2.0810    1.9630   -0.8050 o         1 MOL     -0.693930
     57 H25         4.4650    0.4200    1.4060 hn        1 MOL      0.282374
     58 H26         5.0300    1.3280   -1.2050 h1        1 MOL      0.072787
     59 H27         4.7890    2.3840    0.2140 h1        1 MOL      0.072787
     60 N6          3.4990    3.3800   -1.7750 n         1 MOL     -0.571249
     61 C19         2.4570    4.2800   -2.3740 c3        1 MOL      0.384814
     62 C20         2.9320    5.7570   -2.4910 c         1 MOL      0.441509
     63 O10         4.1340    6.0630   -2.4180 o         1 MOL     -0.538012
     64 C21         2.1630    3.7940   -3.8290 c3        1 MOL     -0.345589
     65 C22         1.4170    2.4330   -3.8070 c         1 MOL      0.694747
     66 O11         0.3900    2.3430   -3.1260 o         1 MOL     -0.651489
     67 O12         1.9110    1.4500   -4.4130 o         1 MOL     -0.651489
     68 H28         4.4740    3.6660   -1.7510 hn        1 MOL      0.293261
     69 H29         1.5920    4.1420   -1.7230 h1        1 MOL      0.014568
     70 H30         3.1050    3.7580   -4.3670 hc        1 MOL      0.084424
     71 H31         1.4000    4.3960   -4.3190 hc        1 MOL      0.084424
     72 N7          2.0790    6.7750   -2.5350 n         1 MOL     -0.428399
     73 C23         0.6220    6.6780   -2.6450 c3        1 MOL     -0.193099
     74 C24        -0.1370    6.1770   -1.4970 c         1 MOL      0.650501
     75 O13         0.3100    6.3990   -0.3920 o         1 MOL     -0.510671
     76 H32         2.4250    7.6950   -2.7790 hn        1 MOL      0.338783
     77 H33         0.3150    6.2260   -3.5910 h1        1 MOL      0.100186
     78 H34         0.3730    7.7330   -2.7120 h1        1 MOL      0.100186
     79 N8         -1.2790    5.5010   -1.6960 n         1 MOL     -0.601142
     80 C25        -2.0750    5.1240   -0.4360 c3        1 MOL     -0.025646
     81 C26        -1.5440    3.8700    0.2160 c         1 MOL      0.615060
     82 O14        -0.8830    3.1240   -0.4300 o         1 MOL     -0.560820
     83 C27        -3.5810    4.9290   -0.8860 c3        1 MOL      0.293416
     84 C28        -4.4040    4.4680    0.3010 c3        1 MOL     -0.363055
     85 O15        -3.6970    3.8930   -1.8130 oh        1 MOL     -0.638657
     86 H35        -1.4700    5.0180   -2.5540 hn        1 MOL      0.354821
     87 H36        -2.0270    5.8740    0.3610 h1        1 MOL      0.084810
     88 H37        -3.9670    5.8190   -1.3810 h1        1 MOL      0.034462
     89 H38        -4.5740    4.0410   -2.1670 ho        1 MOL      0.429520
     90 H39        -4.1300    3.4760    0.6550 hc        1 MOL      0.084560
     91 H40        -4.3300    5.1930    1.1200 hc        1 MOL      0.084560
     92 H41        -5.4420    4.5340   -0.0340 hc        1 MOL      0.084560
     93 N9         -1.5780    3.8210    1.5500 n         1 MOL     -0.410140
     94 C29        -0.8810    2.9610    2.4720 c3        1 MOL     -0.053310
     95 C30        -1.3100    1.5460    2.3520 c         1 MOL      0.244914
     96 O16        -0.9530    0.9100    1.3280 o         1 MOL     -0.455614
     97 C31         0.6710    3.0230    2.3540 c3        1 MOL      0.513035
     98 C32         1.2650    4.4740    2.4570 c3        1 MOL     -0.194170
     99 C33         1.2630    2.3000    3.5590 c3        1 MOL     -0.313879
    100 C34         1.1690    5.2630    3.7770 c3        1 MOL     -0.194275
    101 H42        -2.0800    4.5790    1.9860 hn        1 MOL      0.264195
    102 H43        -1.0770    3.2680    3.5000 h1        1 MOL      0.061647
    103 H44         1.1250    2.5120    1.4950 hc        1 MOL     -0.055502
    104 H45         0.8600    5.0930    1.6610 hc        1 MOL      0.067432
    105 H46         2.2870    4.2370    2.1580 hc        1 MOL      0.067432
    106 H47         2.3470    2.3190    3.6020 hc        1 MOL      0.061347
    107 H48         0.7190    2.6700    4.4280 hc        1 MOL      0.061347
    108 H49         1.0860    1.2230    3.4920 hc        1 MOL      0.061347
    109 H50         0.0900    5.3030    3.9170 hc        1 MOL      0.046627
    110 H51         1.6190    4.8950    4.7020 hc        1 MOL      0.046627
    111 H52         1.6000    6.2300    3.5110 hc        1 MOL      0.046627
    112 N10        -2.1610    1.0270    3.2290 n         1 MOL     -0.226618
    113 C35        -2.6260   -0.3390    3.2620 c3        1 MOL     -0.153917
    114 C36        -4.2040   -0.5370    3.2400 c         1 MOL      0.449983
    115 O17        -4.6360   -1.6540    3.4350 o         1 MOL     -0.514695
    116 C37        -1.8500   -1.1790    4.3080 c3        1 MOL      0.417945
    117 C38        -2.0050   -0.5330    5.6940 c3        1 MOL     -0.198794
    118 O18        -0.4470   -1.2500    4.0610 oh        1 MOL     -0.596643
    119 H53        -2.4650    1.6570    3.9640 hn        1 MOL      0.250266
    120 H54        -2.3210   -0.7700    2.3070 h1        1 MOL      0.134788
    121 H55        -2.2650   -2.1840    4.2970 h1        1 MOL      0.016564
    122 H56        -0.2740   -1.6730    3.2150 ho        1 MOL      0.357842
    123 H57        -2.0730   -1.3900    6.3770 hc        1 MOL      0.038172
    124 H58        -1.1720    0.1070    5.9730 hc        1 MOL      0.038172
    125 H59        -2.8900    0.0820    5.8570 hc        1 MOL      0.038172
    126 N11        -5.0320    0.5360    3.0340 n         1 MOL     -0.104190
    127 C39        -6.4450    0.4700    2.7910 c3        1 MOL     -0.433420
    128 C40        -6.7430   -0.1510    1.4190 c         1 MOL      0.669382
    129 O19        -7.1150    0.5470    0.4940 o         1 MOL     -0.518019
    130 C41        -6.9610    1.9660    2.9120 c3        1 MOL      0.607605
    131 C42        -7.2240    2.3510    4.3380 c3        1 MOL     -0.238200
    132 O20        -6.1260    2.9080    2.4590 oh        1 MOL     -0.686044
    133 H60        -4.5970    1.4320    3.2150 hn        1 MOL      0.178125
    134 H61        -6.8170   -0.1590    3.5980 h1        1 MOL      0.124506
    135 H62        -7.8900    2.1000    2.3520 h1        1 MOL     -0.046114
    136 H63        -6.4020    3.7950    2.6830 ho        1 MOL      0.418516
    137 H64        -8.2110    1.9400    4.5770 hc        1 MOL      0.038128
    138 H65        -6.3750    2.1010    4.9770 hc        1 MOL      0.038128
    139 H66        -7.4060    3.4260    4.3650 hc        1 MOL      0.038128
    140 N12        -6.6460   -1.4930    1.4130 n         1 MOL     -0.473895
    141 C43        -6.6180   -2.4310    0.2630 c3        1 MOL      0.100256
    142 C44        -5.3480   -2.1320   -0.6300 c         1 MOL      0.593762
    143 O21        -4.9660   -1.0060   -0.8250 o         1 MOL     -0.505309
    144 C45        -7.8570   -2.4040   -0.6180 c3        1 MOL     -0.316900
    145 C46        -9.2180   -2.6830    0.1400 c3        1 MOL      0.094188
    146 C47       -10.3500   -2.2650   -0.7720 c3        1 MOL     -0.026997
    147 C48       -11.8430   -2.6130   -0.3360 c3        1 MOL     -0.015160
    148 N13       -12.8440   -2.0620   -1.3000 n4        1 MOL     -0.172873
    149 H67        -6.1720   -1.8490    2.2350 hn        1 MOL      0.285354
    150 H68        -6.5610   -3.4660    0.6040 h1        1 MOL      0.052115
    151 H69        -7.7880   -3.1340   -1.4210 hc        1 MOL      0.099456
    152 H70        -7.9870   -1.4330   -1.0950 hc        1 MOL      0.099456
    153 H71        -9.2430   -2.2040    1.1190 hc        1 MOL      0.001205
    154 H72        -9.3510   -3.7570    0.2390 hc        1 MOL      0.001205
    155 H73       -10.0980   -2.8410   -1.6680 hc        1 MOL      0.048514
    156 H74       -10.2320   -1.2040   -0.9990 hc        1 MOL      0.048514
    157 H75       -12.0820   -2.2990    0.6870 hx        1 MOL      0.084437
    158 H76       -11.9840   -3.6960   -0.3400 hx        1 MOL      0.084437
    159 H77       -12.8100   -1.0880   -1.5750 hn        1 MOL      0.213643
    160 H78       -12.8950   -2.5300   -2.1830 hn        1 MOL      0.213643
    161 H79       -13.7630   -2.2130   -0.9060 hn        1 MOL      0.213643
    162 N14        -4.7470   -3.1770   -1.2480 n         1 MOL     -0.513984
    163 C49        -3.5180   -3.1170   -2.1220 c3        1 MOL      0.081151
    164 C50        -2.2360   -2.7730   -1.2630 c         1 MOL      0.372477
    165 O22        -1.5060   -1.8960   -1.5700 o         1 MOL     -0.554470
    166 C51        -3.4460   -4.4470   -2.9410 c3        1 MOL     -0.048862
    167 C52        -4.6400   -4.6030   -3.8760 c3        1 MOL     -0.248744
    168 C53        -4.5170   -5.9440   -4.5790 c         1 MOL      0.666535
    169 O23        -4.4720   -5.9640   -5.8620 o         1 MOL     -0.626045
    170 O24        -4.5910   -7.0290   -3.9490 o         1 MOL     -0.626045
    171 H80        -5.1710   -4.0920   -1.2490 hn        1 MOL      0.328742
    172 H81        -3.7460   -2.3590   -2.8690 h1        1 MOL      0.069519
    173 H82        -3.2830   -5.3460   -2.3470 hc        1 MOL      0.077199
    174 H83        -2.6680   -4.3820   -3.7110 hc        1 MOL      0.077199
    175 H84        -4.6520   -3.7830   -4.5990 hc        1 MOL      0.048646
    176 H85        -5.5190   -4.5710   -3.2250 hc        1 MOL      0.048646
    177 N15        -1.9010   -3.4450   -0.1830 n         1 MOL     -0.171142
    178 C54        -2.5050   -4.6260    0.4010 c3        1 MOL     -0.103987
    179 H86        -2.2900   -5.4910   -0.2260 h1        1 MOL      0.042847
    180 H87        -2.0960   -4.7900    1.3980 h1        1 MOL      0.042847
    181 H88        -3.5840   -4.4880    0.4700 h1        1 MOL      0.042847
    182 H89        -1.1970   -3.0390    0.4270 hn        1 MOL      0.259876
    183 Ca1        -0.3670    0.6370   -1.1710 Ca        1 MOL      1.743734
    184 O25        -1.8300    0.5210   -3.3900 oh        1 MOL     -0.840523
    185 H90        -1.3810    0.5700   -4.2400 ho        1 MOL      0.405464
    186 H91        -2.7330    0.3000   -3.6030 ho        1 MOL      0.405464
    187 O26         1.4480   -0.7180   -3.0270 oh        1 MOL     -0.840523
    188 H92         2.1190   -0.7950   -2.3510 ho        1 MOL      0.405464
    189 H93         1.7480    0.0080   -3.5790 ho        1 MOL      0.405464
    190 O27        -3.1230    1.0180   -0.7650 oh        1 MOL     -0.840523
    191 H94        -3.7690    0.3130   -0.8260 ho        1 MOL      0.405464
    192 H95        -3.4750    1.7190   -1.3090 ho        1 MOL      0.405464
@<TRIPOS>BOND
     1    1    2 1   
     2    1    4 1   
     3    1    5 1   
     4    1    6 1   
     5    2    3 2   
     6    2    7 1   
     7    7    8 1   
     8    7   15 1   
     9    8    9 1   
    10    8   11 1   
    11    8   16 1   
    12    9   10 2   
    13    9   19 1   
    14   11   12 1   
    15   11   17 1   
    16   11   18 1   
    17   12   13 1   
    18   12   14 1   
    19   19   20 1   
    20   19   28 1   
    21   20   21 1   
    22   20   23 1   
    23   20   29 1   
    24   21   22 2   
    25   21   41 1   
    26   23   24 1   
    27   23   30 1   
    28   23   31 1   
    29   24   25 1   
    30   24   32 1   
    31   24   33 1   
    32   25   26 1   
    33   25   34 1   
    34   25   35 1   
    35   26   27 1   
    36   26   36 1   
    37   26   37 1   
    38   27   38 1   
    39   27   39 1   
    40   27   40 1   
    41   41   42 1   
    42   41   49 1   
    43   42   43 1   
    44   42   45 1   
    45   42   50 1   
    46   43   44 2   
    47   43   53 1   
    48   45   46 1   
    49   45   51 1   
    50   45   52 1   
    51   46   47 1   
    52   46   48 1   
    53   53   54 1   
    54   53   57 1   
    55   54   55 1   
    56   54   58 1   
    57   54   59 1   
    58   55   56 2   
    59   55   60 1   
    60   60   61 1   
    61   60   68 1   
    62   61   62 1   
    63   61   64 1   
    64   61   69 1   
    65   62   63 2   
    66   62   72 1   
    67   64   65 1   
    68   64   70 1   
    69   64   71 1   
    70   65   66 1   
    71   65   67 1   
    72   72   73 1   
    73   72   76 1   
    74   73   74 1   
    75   73   77 1   
    76   73   78 1   
    77   74   75 2   
    78   74   79 1   
    79   79   80 1   
    80   79   86 1   
    81   80   81 1   
    82   80   83 1   
    83   80   87 1   
    84   81   82 2   
    85   81   93 1   
    86   83   84 1   
    87   83   85 1   
    88   83   88 1   
    89   84   90 1   
    90   84   91 1   
    91   84   92 1   
    92   85   89 1   
    93   93   94 1   
    94   93  101 1   
    95   94   95 1   
    96   94   97 1   
    97   94  102 1   
    98   95   96 2   
    99   95  112 1   
   100   97   98 1   
   101   97   99 1   
   102   97  103 1   
   103   98  100 1   
   104   98  104 1   
   105   98  105 1   
   106   99  106 1   
   107   99  107 1   
   108   99  108 1   
   109  100  109 1   
   110  100  110 1   
   111  100  111 1   
   112  112  113 1   
   113  112  119 1   
   114  113  114 1   
   115  113  116 1   
   116  113  120 1   
   117  114  115 2   
   118  114  126 1   
   119  116  117 1   
   120  116  118 1   
   121  116  121 1   
   122  117  123 1   
   123  117  124 1   
   124  117  125 1   
   125  118  122 1   
   126  126  127 1   
   127  126  133 1   
   128  127  128 1   
   129  127  130 1   
   130  127  134 1   
   131  128  129 2   
   132  128  140 1   
   133  130  131 1   
   134  130  132 1   
   135  130  135 1   
   136  131  137 1   
   137  131  138 1   
   138  131  139 1   
   139  132  136 1   
   140  140  141 1   
   141  140  149 1   
   142  141  142 1   
   143  141  144 1   
   144  141  150 1   
   145  142  143 2   
   146  142  162 1   
   147  144  145 1   
   148  144  151 1   
   149  144  152 1   
   150  145  146 1   
   151  145  153 1   
   152  145  154 1   
   153  146  147 1   
   154  146  155 1   
   155  146  156 1   
   156  147  148 1   
   157  147  157 1   
   158  147  158 1   
   159  148  159 1   
   160  148  160 1   
   161  148  161 1   
   162  162  163 1   
   163  162  171 1   
   164  163  164 1   
   165  163  166 1   
   166  163  172 1   
   167  164  165 2   
   168  164  177 1   
   169  166  167 1   
   170  166  173 1   
   171  166  174 1   
   172  167  168 1   
   173  167  175 1   
   174  167  176 1   
   175  168  169 1   
   176  168  170 1   
   177  177  178 1   
   178  177  182 1   
   179  178  179 1   
   180  178  180 1   
   181  178  181 1   
   182  184  185 1   
   183  184  186 1   
   184  187  188 1   
   185  187  189 1   
   186  190  191 1   
   187  190  192 1   
@<TRIPOS>SUBSTRUCTURE
     1 MOL         1 TEMP              0 ****  ****    0 ROOT
