@<TRIPOS>MOLECULE
MOL
  192   187     1     0     0
SMALL
resp


@<TRIPOS>ATOM
      1 C1          3.2530    4.3950   -3.3760 c3        1 MOL     -0.333282
      2 C2          4.2820    3.8200   -2.3830 c         1 MOL      0.704534
      3 O1          3.9730    3.4920   -1.2950 o         1 MOL     -0.547138
      4 H1          3.7630    4.7060   -4.2870 hc        1 MOL      0.089197
      5 H2          2.5130    3.6320   -3.6160 hc        1 MOL      0.089197
      6 H3          2.7560    5.2550   -2.9270 hc        1 MOL      0.089197
      7 N1          5.6370    3.7830   -2.8340 n         1 MOL     -0.574014
      8 C3          6.6840    2.9120   -2.0790 c3        1 MOL      0.228889
      9 C4          6.1250    1.4610   -1.7780 c         1 MOL      0.619093
     10 O2          5.9870    1.0230   -0.6600 o         1 MOL     -0.837451
     11 C5          7.4490    3.6440   -0.9340 c3        1 MOL     -0.214236
     12 C6          6.6230    4.5050    0.0680 c         1 MOL      0.635998
     13 O3          6.1320    4.0110    1.1540 o         1 MOL     -0.679955
     14 O4          6.5330    5.7230   -0.2370 o         1 MOL     -0.679955
     15 H4          5.8340    4.2010   -3.7290 hn        1 MOL      0.292132
     16 H5          7.4860    2.7670   -2.7930 h1        1 MOL      0.011439
     17 H6          8.1920    4.2800   -1.4020 hc        1 MOL      0.054361
     18 H7          7.9870    2.8740   -0.3830 hc        1 MOL      0.054361
     19 N2          5.6360    0.8030   -2.8280 n         1 MOL     -0.651383
     20 C7          5.0600   -0.4850   -3.1150 c3        1 MOL      0.176842
     21 C8          5.8330   -1.6950   -2.4900 c         1 MOL      0.391892
     22 O5          5.9850   -2.7290   -3.1570 o         1 MOL     -0.600603
     23 C9          3.5600   -0.6040   -2.6900 c3        1 MOL      0.254615
     24 C10         2.8140   -1.8540   -3.2730 c3        1 MOL      0.083998
     25 C11         2.7650    0.7040   -2.9950 c3        1 MOL     -0.063660
     26 C12         2.6520   -1.7410   -4.7900 c3        1 MOL     -0.102398
     27 H8          5.7680    1.2770   -3.7020 hn        1 MOL      0.274233
     28 H9          5.0680   -0.6320   -4.2010 h1        1 MOL      0.044836
     29 H10         3.6200   -0.7260   -1.6070 hc        1 MOL     -0.227081
     30 H11         1.8780   -2.0440   -2.7440 hc        1 MOL      0.018509
     31 H12         3.4220   -2.7540   -3.1060 hc        1 MOL      0.018509
     32 H13         1.7130    0.4960   -2.7740 hc        1 MOL     -0.007147
     33 H14         3.2170    1.5040   -2.4110 hc        1 MOL     -0.007147
     34 H15         2.8680    1.1270   -3.9890 hc        1 MOL     -0.007147
     35 H16         3.5990   -1.9100   -5.3120 hc        1 MOL     -0.013366
     36 H17         1.7670   -2.3400   -5.0220 hc        1 MOL     -0.013366
     37 H18         2.3130   -0.7130   -4.9820 hc        1 MOL     -0.013366
     38 N3          6.2810   -1.5950   -1.2820 n         1 MOL     -0.369647
     39 C13         7.2580   -2.4110   -0.5770 c3        1 MOL      0.142280
     40 C14         6.8730   -3.9150   -0.4190 c         1 MOL      0.698622
     41 O6          7.7900   -4.7690   -0.6310 o         1 MOL     -0.583778
     42 C15         7.6090   -1.6110    0.6810 c3        1 MOL     -0.497747
     43 C16         8.5740   -2.3660    1.5780 c         1 MOL      0.746627
     44 O7          9.7430   -2.4970    1.2280 o         1 MOL     -0.706193
     45 O8          8.2240   -2.8860    2.6770 o         1 MOL     -0.706193
     46 H19         6.0030   -0.7360   -0.8360 hn        1 MOL      0.629304
     47 H20         8.1690   -2.4950   -1.1870 h1        1 MOL      0.025599
     48 H21         6.6970   -1.3530    1.2110 hc        1 MOL      0.086784
     49 H22         8.0910   -0.7010    0.3400 hc        1 MOL      0.086784
     50 N4          5.6460   -4.3580   -0.0310 n         1 MOL     -0.674089
     51 C17         4.5340   -3.4730    0.4310 c3        1 MOL      0.463622
     52 C18         3.3940   -4.3500    1.1440 c         1 MOL      0.545745
     53 O9          3.2910   -5.5540    0.9430 o         1 MOL     -0.587121
     54 H23         5.4450   -5.3370    0.1270 hn        1 MOL      0.331079
     55 H24         4.0150   -3.0380   -0.4200 h1        1 MOL     -0.115264
     56 H25         4.8530   -2.7320    1.1740 h1        1 MOL     -0.115264
     57 N5          2.6160   -3.7320    2.0430 n         1 MOL     -0.322737
     58 C19         2.7290   -2.3480    2.6890 c3        1 MOL     -0.295823
     59 C20         2.6840   -1.1610    1.6420 c         1 MOL      0.624614
     60 O10         3.6790   -0.4050    1.4140 o         1 MOL     -0.552243
     61 C21         3.8960   -2.2550    3.6920 c3        1 MOL     -0.039583
     62 C22         3.9320   -3.4190    4.6740 c         1 MOL      0.664633
     63 O11         5.0670   -3.9260    4.8100 o         1 MOL     -0.697834
     64 O12         2.9800   -3.7220    5.4030 o         1 MOL     -0.697834
     65 H26         1.9550   -4.3990    2.4330 hn        1 MOL      0.261726
     66 H27         1.8890   -2.2940    3.3820 h1        1 MOL      0.057362
     67 H28         3.8060   -1.3860    4.3480 hc        1 MOL      0.036306
     68 H29         4.8550   -2.0940    3.2110 hc        1 MOL      0.036306
     69 N6          1.5910   -0.9170    0.9070 n         1 MOL     -0.197606
     70 C23         0.2300   -1.4890    1.1300 c3        1 MOL     -0.258425
     71 C24        -0.2010   -2.6230    0.2610 c         1 MOL      0.662538
     72 O13         0.4780   -3.0560   -0.6570 o         1 MOL     -0.571637
     73 H30         1.6560   -0.1580    0.2450 hn        1 MOL      0.269856
     74 H31        -0.3970   -0.5930    1.0820 h1        1 MOL      0.111050
     75 H32         0.1940   -1.8180    2.1680 h1        1 MOL      0.111050
     76 N7         -1.3660   -3.2210    0.6160 n         1 MOL     -0.488338
     77 C25        -1.8690   -4.4130   -0.0540 c3        1 MOL      0.040359
     78 C26        -2.6650   -4.2710   -1.4200 c         1 MOL      0.406129
     79 O14        -2.8970   -5.2800   -2.0910 o         1 MOL     -0.517593
     80 C27        -2.4650   -5.4260    1.0030 c3        1 MOL     -0.140175
     81 C28        -3.5890   -4.8840    1.8360 c3        1 MOL     -0.259290
     82 C29        -4.8110   -4.4770    1.0450 c         1 MOL      0.444242
     83 N8         -5.4930   -5.4400    0.5340 n         1 MOL     -0.637501
     84 O15        -5.0990   -3.3500    0.7490 o         1 MOL     -0.503313
     85 H33        -1.6720   -3.0100    1.5490 hn        1 MOL      0.283038
     86 H34        -1.0130   -4.9750   -0.4170 h1        1 MOL      0.133563
     87 H35        -1.6380   -5.6130    1.6890 hc        1 MOL      0.073786
     88 H36        -2.7620   -6.2830    0.3960 hc        1 MOL      0.073786
     89 H37        -3.2190   -4.0990    2.5080 hc        1 MOL      0.120453
     90 H38        -3.9080   -5.6460    2.5600 hc        1 MOL      0.120453
     91 H39        -5.2110   -6.4010    0.6580 hn        1 MOL      0.342716
     92 H40        -6.0930   -5.1360   -0.2260 hn        1 MOL      0.342716
     93 N9         -2.7670   -3.0230   -1.7830 n         1 MOL     -0.085778
     94 C30        -3.2480   -2.5590   -3.1130 c3        1 MOL     -0.258935
     95 C31        -4.7120   -2.1110   -3.1980 c         1 MOL      0.565443
     96 O16        -5.0920   -1.6630   -4.2780 o         1 MOL     -0.533637
     97 C32        -2.2620   -1.7000   -3.8750 c3        1 MOL      0.187544
     98 C33        -0.9730   -2.4630   -4.0770 c3        1 MOL     -0.245432
     99 C34        -2.0600   -0.3840   -3.1890 c3        1 MOL     -0.245432
    100 H41        -2.5640   -2.3150   -1.0880 hn        1 MOL      0.124770
    101 H42        -3.3190   -3.4940   -3.6830 h1        1 MOL      0.117282
    102 H43        -2.7020   -1.3780   -4.8180 hc        1 MOL      0.018900
    103 H44        -0.5030   -2.0840   -4.9910 hc        1 MOL      0.077183
    104 H45        -0.2760   -2.3210   -3.2440 hc        1 MOL      0.077183
    105 H46        -1.0530   -3.5480   -4.1780 hc        1 MOL      0.077183
    106 H47        -1.6220   -0.5750   -2.2080 hc        1 MOL      0.077183
    107 H48        -1.3010    0.1970   -3.7120 hc        1 MOL      0.077183
    108 H49        -3.0290    0.1050   -3.0880 hc        1 MOL      0.077183
    109 N10        -5.4490   -2.1100   -2.0580 n         1 MOL     -0.442835
    110 C35        -6.8780   -1.6820   -1.9600 c3        1 MOL     -0.002894
    111 C36        -7.0160   -0.2570   -1.3570 c         1 MOL      0.598352
    112 O17        -8.0390    0.3510   -1.5600 o         1 MOL     -0.561841
    113 C37        -7.7180   -2.7210   -1.2310 c3        1 MOL     -0.211115
    114 C38        -8.0120   -4.0060   -1.9820 c         1 MOL      0.812068
    115 N11        -8.8160   -3.9350   -2.9860 n         1 MOL     -0.826848
    116 O18        -7.7000   -5.0440   -1.5170 o         1 MOL     -0.590731
    117 H50        -4.9900   -2.3320   -1.1930 hn        1 MOL      0.297354
    118 H51        -7.3470   -1.5680   -2.9440 h1        1 MOL      0.059349
    119 H52        -8.7180   -2.3430   -1.0350 hc        1 MOL      0.035324
    120 H53        -7.2550   -3.1130   -0.3150 hc        1 MOL      0.035324
    121 H54        -9.0420   -3.0090   -3.3060 hn        1 MOL      0.367880
    122 H55        -9.0190   -4.7390   -3.5720 hn        1 MOL      0.367880
    123 N12        -6.0890    0.2260   -0.5530 n         1 MOL     -0.500865
    124 C39        -6.2810    1.5860    0.1510 c3        1 MOL      0.222808
    125 C40        -5.0390    2.3690    0.4160 c         1 MOL      0.382220
    126 O19        -3.9830    1.9360    0.6760 o         1 MOL     -0.450638
    127 C41        -7.1800    1.4090    1.4300 c3        1 MOL     -0.020033
    128 C42        -6.8820    0.1270    2.2080 ca        1 MOL     -0.066410
    129 C43        -7.5430   -1.0430    1.8540 ca        1 MOL     -0.069165
    130 C44        -5.7630    0.0220    3.0700 ca        1 MOL     -0.069165
    131 C45        -7.2070   -2.2650    2.4030 ca        1 MOL     -0.336671
    132 C46        -5.3640   -1.2310    3.6170 ca        1 MOL     -0.336671
    133 C47        -6.1360   -2.3840    3.3400 ca        1 MOL      0.392762
    134 O20        -5.9120   -3.4870    4.0730 oh        1 MOL     -0.487075
    135 H56        -5.2560   -0.2970   -0.3230 hn        1 MOL      0.304951
    136 H57        -6.8740    2.1600   -0.5610 h1        1 MOL      0.029385
    137 H58        -8.2220    1.3530    1.1380 hc        1 MOL      0.038492
    138 H59        -7.1310    2.3050    2.0510 hc        1 MOL      0.038492
    139 H60        -8.3750   -1.0030    1.1530 ha        1 MOL      0.131799
    140 H61        -5.1880    0.9130    3.2400 ha        1 MOL      0.131799
    141 H62        -7.7440   -3.1560    2.1250 ha        1 MOL      0.170776
    142 H63        -4.5460   -1.3540    4.3130 ha        1 MOL      0.170776
    143 H64        -6.4590   -4.1940    3.7160 ho        1 MOL      0.349653
    144 N13        -5.3200    3.6870    0.4840 n         1 MOL     -0.577468
    145 C48        -4.5980    4.8020    1.0620 c3        1 MOL      0.038650
    146 C49        -3.1640    5.0930    0.3520 c         1 MOL      0.449688
    147 O21        -2.5960    6.2220    0.3150 o         1 MOL     -0.513476
    148 C50        -4.2740    4.5190    2.5860 c3        1 MOL      0.043217
    149 C51        -4.2860    5.6590    3.6220 c3        1 MOL     -0.214027
    150 C52        -5.6460    6.1900    3.9510 c         1 MOL      0.693074
    151 O22        -5.8650    7.4530    3.9400 o         1 MOL     -0.737252
    152 O23        -6.5990    5.3430    4.1650 o         1 MOL     -0.737252
    153 H65        -6.2410    4.0100    0.2080 hn        1 MOL      0.333023
    154 H66        -5.1780    5.7270    0.9810 h1        1 MOL      0.110846
    155 H67        -3.2460    4.1640    2.6710 hc        1 MOL      0.035225
    156 H68        -4.8830    3.6890    2.9290 hc        1 MOL      0.035225
    157 H69        -3.7530    6.5140    3.2110 hc        1 MOL      0.027124
    158 H70        -3.8340    5.2240    4.5140 hc        1 MOL      0.027124
    159 N14        -2.6720    4.0650   -0.3860 n         1 MOL     -0.373484
    160 C53        -1.5350    4.3240   -1.2910 c3        1 MOL     -0.093206
    161 C54        -1.9210    5.2820   -2.4500 c         1 MOL      0.559972
    162 O24        -1.0590    5.8540   -3.1570 o         1 MOL     -0.534304
    163 C55        -0.9850    2.9990   -1.8050 c3        1 MOL     -0.040895
    164 C56        -0.3860    2.0200   -0.8420 c3        1 MOL      0.069908
    165 C57         0.8750    2.5100   -0.0290 c         1 MOL      0.588934
    166 O25         0.7640    3.4250    0.7860 o         1 MOL     -0.624444
    167 O26         1.9450    1.7830   -0.0630 o         1 MOL     -0.624444
    168 H71        -3.1660    3.1940   -0.2770 hn        1 MOL      0.302566
    169 H72        -0.7900    4.7640   -0.6220 h1        1 MOL      0.121474
    170 H73        -0.2580    3.3600   -2.5270 hc        1 MOL      0.003648
    171 H74        -1.7690    2.4780   -2.3650 hc        1 MOL      0.003648
    172 H75        -0.1320    1.1210   -1.4040 hc        1 MOL     -0.040198
    173 H76        -1.2300    1.6650   -0.2580 hc        1 MOL     -0.040198
    174 N15        -3.2520    5.5050   -2.6040 n         1 MOL     -0.310185
    175 C58        -3.8750    6.4730   -3.5400 c3        1 MOL     -0.210709
    176 H77        -4.9050    6.1750   -3.7370 h1        1 MOL      0.097585
    177 H78        -3.8630    7.4680   -3.0960 h1        1 MOL      0.097585
    178 H79        -3.3160    6.4850   -4.4760 h1        1 MOL      0.097585
    179 H80        -3.9070    5.1140   -1.9510 hn        1 MOL      0.222969
    180 Ca1         4.3100    2.2280    1.2790 Ca        1 MOL      1.765410
    181 O27         2.2450    1.7440    2.9670 oh        1 MOL     -0.863131
    182 H81         2.4120    1.9100    3.8880 ho        1 MOL      0.416279
    183 H82         1.3380    2.0260    2.8290 ho        1 MOL      0.416279
    184 O28         4.5420    3.3830    3.7840 oh        1 MOL     -0.863131
    185 H83         5.2990    3.9840    3.8230 ho        1 MOL      0.416279
    186 H84         4.2820    3.2830    4.7000 ho        1 MOL      0.416279
    187 O29         2.8980    4.8560    1.3130 oh        1 MOL     -0.863131
    188 H85         2.9390    5.5690    0.6660 ho        1 MOL      0.416279
    189 H86         2.0330    4.4810    1.1880 ho        1 MOL      0.416279
    190 O30         6.0530    0.9940    2.9390 oh        1 MOL     -0.863131
    191 H87         6.5750    0.2190    2.7430 ho        1 MOL      0.416279
    192 H88         6.5550    1.4610    3.6060 ho        1 MOL      0.416279
@<TRIPOS>BOND
     1    1    2 1   
     2    1    4 1   
     3    1    5 1   
     4    1    6 1   
     5    2    3 2   
     6    2    7 1   
     7    7    8 1   
     8    7   15 1   
     9    8    9 1   
    10    8   11 1   
    11    8   16 1   
    12    9   10 2   
    13    9   19 1   
    14   11   12 1   
    15   11   17 1   
    16   11   18 1   
    17   12   13 1   
    18   12   14 1   
    19   19   20 1   
    20   19   27 1   
    21   20   21 1   
    22   20   23 1   
    23   20   28 1   
    24   21   22 2   
    25   21   38 1   
    26   23   24 1   
    27   23   25 1   
    28   23   29 1   
    29   24   26 1   
    30   24   30 1   
    31   24   31 1   
    32   25   32 1   
    33   25   33 1   
    34   25   34 1   
    35   26   35 1   
    36   26   36 1   
    37   26   37 1   
    38   38   39 1   
    39   38   46 1   
    40   39   40 1   
    41   39   42 1   
    42   39   47 1   
    43   40   41 2   
    44   40   50 1   
    45   42   43 1   
    46   42   48 1   
    47   42   49 1   
    48   43   44 1   
    49   43   45 1   
    50   50   51 1   
    51   50   54 1   
    52   51   52 1   
    53   51   55 1   
    54   51   56 1   
    55   52   53 2   
    56   52   57 1   
    57   57   58 1   
    58   57   65 1   
    59   58   59 1   
    60   58   61 1   
    61   58   66 1   
    62   59   60 2   
    63   59   69 1   
    64   61   62 1   
    65   61   67 1   
    66   61   68 1   
    67   62   63 1   
    68   62   64 1   
    69   69   70 1   
    70   69   73 1   
    71   70   71 1   
    72   70   74 1   
    73   70   75 1   
    74   71   72 2   
    75   71   76 1   
    76   76   77 1   
    77   76   85 1   
    78   77   78 1   
    79   77   80 1   
    80   77   86 1   
    81   78   79 2   
    82   78   93 1   
    83   80   81 1   
    84   80   87 1   
    85   80   88 1   
    86   81   82 1   
    87   81   89 1   
    88   81   90 1   
    89   82   83 1   
    90   82   84 2   
    91   83   91 1   
    92   83   92 1   
    93   93   94 1   
    94   93  100 1   
    95   94   95 1   
    96   94   97 1   
    97   94  101 1   
    98   95   96 2   
    99   95  109 1   
   100   97   98 1   
   101   97   99 1   
   102   97  102 1   
   103   98  103 1   
   104   98  104 1   
   105   98  105 1   
   106   99  106 1   
   107   99  107 1   
   108   99  108 1   
   109  109  110 1   
   110  109  117 1   
   111  110  111 1   
   112  110  113 1   
   113  110  118 1   
   114  111  112 2   
   115  111  123 1   
   116  113  114 1   
   117  113  119 1   
   118  113  120 1   
   119  114  115 1   
   120  114  116 2   
   121  115  121 1   
   122  115  122 1   
   123  123  124 1   
   124  123  135 1   
   125  124  125 1   
   126  124  127 1   
   127  124  136 1   
   128  125  126 2   
   129  125  144 1   
   130  127  128 1   
   131  127  137 1   
   132  127  138 1   
   133  128  129 ar  
   134  128  130 ar  
   135  129  131 ar  
   136  129  139 1   
   137  130  132 ar  
   138  130  140 1   
   139  131  133 ar  
   140  131  141 1   
   141  132  133 ar  
   142  132  142 1   
   143  133  134 1   
   144  134  143 1   
   145  144  145 1   
   146  144  153 1   
   147  145  146 1   
   148  145  148 1   
   149  145  154 1   
   150  146  147 2   
   151  146  159 1   
   152  148  149 1   
   153  148  155 1   
   154  148  156 1   
   155  149  150 1   
   156  149  157 1   
   157  149  158 1   
   158  150  151 1   
   159  150  152 1   
   160  159  160 1   
   161  159  168 1   
   162  160  161 1   
   163  160  163 1   
   164  160  169 1   
   165  161  162 2   
   166  161  174 1   
   167  163  164 1   
   168  163  170 1   
   169  163  171 1   
   170  164  165 1   
   171  164  172 1   
   172  164  173 1   
   173  165  166 1   
   174  165  167 1   
   175  174  175 1   
   176  174  179 1   
   177  175  176 1   
   178  175  177 1   
   179  175  178 1   
   180  181  182 1   
   181  181  183 1   
   182  184  185 1   
   183  184  186 1   
   184  187  188 1   
   185  187  189 1   
   186  190  191 1   
   187  190  192 1   
@<TRIPOS>SUBSTRUCTURE
     1 MOL         1 TEMP              0 ****  ****    0 ROOT
