@<TRIPOS>MOLECULE
MOL
  191   184     1     0     0
SMALL
resp


@<TRIPOS>ATOM
      1 C1          1.4000    1.6070    3.2510 c3        1 MOL     -0.457573
      2 C2          2.4550    1.7630    2.2200 c         1 MOL      0.809693
      3 O1          2.2160    2.4300    1.2150 o         1 MOL     -0.606428
      4 H1          1.5500    0.6690    3.7840 hc        1 MOL      0.110300
      5 H2          1.4540    2.4370    3.9560 hc        1 MOL      0.110300
      6 H3          0.4210    1.6000    2.7720 hc        1 MOL      0.110300
      7 N1          3.5770    1.0980    2.4670 n         1 MOL     -0.596496
      8 C3          4.8630    1.1390    1.7310 c3        1 MOL      0.045638
      9 C4          5.4880   -0.2050    1.1320 c         1 MOL      0.217521
     10 O2          6.4770   -0.1770    0.4350 o         1 MOL     -0.385786
     11 C5          5.8780    1.8840    2.4990 c3        1 MOL     -0.064318
     12 C6          6.0560    1.2110    3.9310 c         1 MOL      0.711517
     13 O3          5.3450    1.5590    4.8690 o         1 MOL     -0.695342
     14 O4          6.9180    0.2960    4.0810 o         1 MOL     -0.695342
     15 H4          3.5640    0.4950    3.2730 hn        1 MOL      0.322241
     16 H5          4.6950    1.7500    0.8440 h1        1 MOL      0.130851
     17 H6          5.4820    2.8810    2.6810 hc        1 MOL      0.024435
     18 H7          6.8980    1.9540    2.1160 hc        1 MOL      0.024435
     19 N2          4.9440   -1.3380    1.5110 n         1 MOL     -0.052083
     20 C7          5.4930   -2.6490    1.3020 c3        1 MOL      0.054877
     21 C8          5.7880   -3.1240   -0.1490 c         1 MOL      0.494626
     22 O5          6.8550   -3.5200   -0.5070 o         1 MOL     -0.548624
     23 C9          6.5580   -2.9150    2.3580 c3        1 MOL     -0.408300
     24 C10         5.9710   -3.0660    3.7850 c3        1 MOL      0.398496
     25 C11         6.7560   -3.9240    4.7460 c3        1 MOL     -0.298213
     26 C12         6.1530   -3.9220    6.1490 c3        1 MOL      0.197477
     27 N3          6.8880   -4.7690    7.1270 n4        1 MOL     -0.400436
     28 H8          4.1570   -1.3260    2.1480 hn        1 MOL      0.165259
     29 H9          4.7230   -3.3690    1.5580 h1        1 MOL      0.014331
     30 H10         7.3460   -2.1610    2.3660 hc        1 MOL      0.131947
     31 H11         7.0120   -3.8800    2.1460 hc        1 MOL      0.131947
     32 H12         4.9940   -3.5400    3.6810 hc        1 MOL     -0.077677
     33 H13         5.8400   -2.0590    4.1710 hc        1 MOL     -0.077677
     34 H14         7.7340   -3.4330    4.7690 hc        1 MOL      0.075887
     35 H15         6.8720   -4.9430    4.3710 hc        1 MOL      0.075887
     36 H16         5.1240   -4.2900    6.1110 hx        1 MOL      0.046336
     37 H17         6.1170   -2.8670    6.4470 hx        1 MOL      0.046336
     38 H18         7.8500   -4.4920    7.2900 hn        1 MOL      0.316364
     39 H19         6.5390   -4.6070    8.0630 hn        1 MOL      0.316364
     40 H20         6.8350   -5.7400    6.8380 hn        1 MOL      0.316364
     41 N4          4.8520   -2.7970   -1.0030 n         1 MOL     -0.605016
     42 C13         4.8770   -2.9400   -2.4450 c3        1 MOL      0.777479
     43 C14         5.4240   -1.7120   -3.2230 c         1 MOL      0.265338
     44 O6          4.9720   -1.5280   -4.3360 o         1 MOL     -0.492617
     45 C15         3.5250   -3.4400   -3.0350 c3        1 MOL     -0.377559
     46 C16         2.3430   -2.7820   -2.4830 c         1 MOL      0.787530
     47 O7          2.4270   -1.6990   -1.8790 o         1 MOL     -0.714164
     48 O8          1.2760   -3.3370   -2.5670 o         1 MOL     -0.714164
     49 H21         4.1020   -2.3040   -0.5300 hn        1 MOL      0.218434
     50 H22         5.5680   -3.7540   -2.6570 h1        1 MOL     -0.103784
     51 H23         3.5690   -4.4830   -2.7040 hc        1 MOL      0.015209
     52 H24         3.5890   -3.3080   -4.1170 hc        1 MOL      0.015209
     53 N5          6.1980   -0.8810   -2.5390 n         1 MOL     -0.346563
     54 C17         6.2720    0.5410   -2.9570 c3        1 MOL     -0.023263
     55 C18         7.3010    1.3940   -2.2140 c         1 MOL      0.545984
     56 O9          8.4990    1.0770   -2.1650 o         1 MOL     -0.537110
     57 H25         6.6240   -1.0400   -1.6440 hn        1 MOL      0.255776
     58 H26         5.2840    1.0020   -2.9060 h1        1 MOL      0.101474
     59 H27         6.6040    0.5720   -3.9950 h1        1 MOL      0.101474
     60 N6          6.9530    2.5810   -1.7040 n         1 MOL     -0.554909
     61 C19         5.7190    3.4820   -1.8060 c3        1 MOL      0.471493
     62 C20         5.4490    4.2190   -0.4630 c         1 MOL      0.289737
     63 O10         6.2860    4.3180    0.4950 o         1 MOL     -0.536719
     64 C21         5.8920    4.5620   -2.9110 c3        1 MOL     -0.410183
     65 C22         5.5890    3.9070   -4.2990 c         1 MOL      0.645223
     66 N7          6.4640    4.0060   -5.3440 n         1 MOL     -0.799430
     67 O11         4.5140    3.3340   -4.4910 o         1 MOL     -0.533320
     68 H28         7.5900    2.8910   -0.9950 hn        1 MOL      0.293118
     69 H29         4.8530    2.8310   -1.9520 h1        1 MOL     -0.045741
     70 H30         6.9340    4.8370   -2.7700 hc        1 MOL      0.116421
     71 H31         5.2680    5.4380   -2.7490 hc        1 MOL      0.116421
     72 H32         7.3660    4.4610   -5.2810 hn        1 MOL      0.367866
     73 H33         6.0390    3.9130   -6.2540 hn        1 MOL      0.367866
     74 N8          4.2530    4.6150   -0.1320 n         1 MOL     -0.218429
     75 C23         3.0150    4.4810   -0.9090 c3        1 MOL     -0.357179
     76 C24         1.7700    5.3080   -0.3560 c         1 MOL      0.727076
     77 O12         1.8650    6.5310   -0.1880 o         1 MOL     -0.576643
     78 H34         4.2450    5.1800    0.7150 hn        1 MOL      0.292797
     79 H35         2.7050    3.4370   -0.7970 h1        1 MOL      0.158770
     80 H36         3.0890    4.6670   -1.9750 h1        1 MOL      0.158770
     81 N9          0.5870    4.6580   -0.1480 n         1 MOL     -0.652365
     82 C25        -0.6810    5.1730    0.3690 c3        1 MOL      0.308927
     83 C26        -1.6490    4.1410    0.7980 c         1 MOL      0.509129
     84 O13        -1.3910    2.9100    0.7580 o         1 MOL     -0.516631
     85 C27        -1.2920    5.9520   -0.8310 c3        1 MOL     -0.207181
     86 C28        -2.3360    6.9490   -0.5360 ca        1 MOL      0.075866
     87 C29        -3.4740    7.0960   -1.3790 ca        1 MOL     -0.117774
     88 C30        -2.2550    7.7090    0.6780 ca        1 MOL     -0.117774
     89 C31        -4.5560    7.9550   -0.9610 ca        1 MOL     -0.311708
     90 C32        -3.2920    8.5930    0.9930 ca        1 MOL     -0.311708
     91 C33        -4.4150    8.7650    0.1420 ca        1 MOL      0.373213
     92 O14        -5.4010    9.7010    0.3960 oh        1 MOL     -0.495763
     93 H37         0.6890    3.6830   -0.3820 hn        1 MOL      0.328559
     94 H38        -0.5940    5.8350    1.2340 h1        1 MOL      0.037800
     95 H39        -1.6830    5.2150   -1.5380 hc        1 MOL      0.087211
     96 H40        -0.5220    6.5310   -1.3290 hc        1 MOL      0.087211
     97 H41        -3.5400    6.5460   -2.2980 ha        1 MOL      0.145568
     98 H42        -1.3370    7.6770    1.2460 ha        1 MOL      0.145568
     99 H43        -5.3140    8.2800   -1.6510 ha        1 MOL      0.156803
    100 H44        -3.2340    9.2170    1.8770 ha        1 MOL      0.156803
    101 H45        -5.2900   10.0460    1.2910 ho        1 MOL      0.359015
    102 N10        -2.8570    4.6090    1.2170 n         1 MOL     -0.452609
    103 C34        -3.9470    3.6750    1.4440 c3        1 MOL     -0.083906
    104 C35        -4.6050    3.3360    0.0740 c         1 MOL      0.694521
    105 O15        -4.8260    4.1720   -0.8200 o         1 MOL     -0.538973
    106 C36        -4.8900    4.3810    2.4930 c3        1 MOL      0.288678
    107 C37        -5.5160    5.6520    1.8430 c3        1 MOL      0.025379
    108 C38        -6.0500    3.4680    2.9450 c3        1 MOL     -0.310965
    109 C39        -6.1590    6.5180    2.8850 c3        1 MOL     -0.234992
    110 H46        -2.9570    5.6150    1.1580 hn        1 MOL      0.103877
    111 H47        -3.5780    2.7570    1.8950 h1        1 MOL      0.085388
    112 H48        -4.3400    4.6210    3.4080 hc        1 MOL      0.005652
    113 H49        -6.2500    5.4680    1.0520 hc        1 MOL      0.046937
    114 H50        -4.8000    6.2610    1.2940 hc        1 MOL      0.046937
    115 H51        -5.6420    2.6500    3.5440 hc        1 MOL      0.057574
    116 H52        -6.6730    4.0790    3.5910 hc        1 MOL      0.057574
    117 H53        -6.6040    3.1070    2.0700 hc        1 MOL      0.057574
    118 H54        -7.1760    6.2780    3.1960 hc        1 MOL      0.044601
    119 H55        -5.5760    6.5260    3.8070 hc        1 MOL      0.044601
    120 H56        -6.1510    7.5690    2.5880 hc        1 MOL      0.044601
    121 N11        -4.9290    2.0530   -0.0950 n         1 MOL     -0.501894
    122 C40        -5.7160    1.4630   -1.1620 c3        1 MOL      0.023634
    123 C41        -5.3910    0.0090   -1.4540 c         1 MOL      0.760222
    124 O16        -4.9520   -0.6710   -0.5300 o         1 MOL     -0.549210
    125 C42        -7.2130    1.6530   -1.0170 c3        1 MOL      0.145996
    126 O17        -7.7370    1.1240    0.1660 oh        1 MOL     -0.581224
    127 H57        -4.6710    1.4250    0.6530 hn        1 MOL      0.285593
    128 H58        -5.4000    2.0290   -2.0320 h1        1 MOL      0.055576
    129 H59        -7.7200    1.3320   -1.9200 h1        1 MOL      0.010694
    130 H60        -7.3580    2.7310   -0.9850 h1        1 MOL      0.010694
    131 H61        -8.6780    1.2770    0.1840 ho        1 MOL      0.409112
    132 N12        -5.7370   -0.4890   -2.6750 n         1 MOL     -0.852843
    133 C43        -5.5370   -1.8200   -3.2520 c3        1 MOL      0.739431
    134 C44        -5.8580   -2.9620   -2.3630 c         1 MOL      0.077048
    135 O18        -5.0020   -3.8810   -2.1840 o         1 MOL     -0.415060
    136 C45        -4.1590   -1.8570   -3.7960 c3        1 MOL     -0.284390
    137 H62        -6.2840    0.1490   -3.2300 hn        1 MOL      0.330151
    138 H63        -6.1570   -1.9070   -4.1410 h1        1 MOL     -0.047484
    139 H64        -4.1950   -1.2940   -4.7290 hc        1 MOL      0.057313
    140 H65        -3.4630   -1.3800   -3.1140 hc        1 MOL      0.057313
    141 H66        -3.9150   -2.9020   -4.0210 hc        1 MOL      0.057313
    142 N13        -7.0130   -2.8890   -1.7540 n         1 MOL     -0.303852
    143 C46        -7.6860   -3.9940   -1.0680 c3        1 MOL      0.063844
    144 C47        -6.8890   -4.5870    0.0900 c         1 MOL      0.480104
    145 O19        -7.0000   -5.8280    0.3000 o         1 MOL     -0.487454
    146 C48        -7.9650   -4.9790   -2.2750 c3        1 MOL     -0.217642
    147 H67        -7.6000   -2.1340   -2.0630 hn        1 MOL      0.252169
    148 H68        -8.6110   -3.6570   -0.6090 h1        1 MOL      0.081053
    149 H69        -8.4250   -5.9220   -1.9800 hc        1 MOL      0.075226
    150 H70        -8.6150   -4.5480   -3.0290 hc        1 MOL      0.075226
    151 H71        -7.0680   -5.4010   -2.7270 hc        1 MOL      0.075226
    152 N14        -6.1190   -3.7270    0.7980 n         1 MOL     -0.504179
    153 C49        -5.1130   -4.1280    1.7200 c3        1 MOL      0.016890
    154 C50        -5.7260   -4.1620    3.1580 c         1 MOL      0.504694
    155 O20        -5.3880   -5.0650    3.9030 o         1 MOL     -0.530950
    156 C51        -3.9610   -3.1090    1.6390 c3        1 MOL      0.125824
    157 C52        -2.6530   -3.6490    2.3070 c3        1 MOL     -0.118761
    158 C53        -1.6190   -3.9340    1.2210 c         1 MOL      0.801718
    159 O21        -0.9630   -3.0180    0.7460 o         1 MOL     -0.778401
    160 O22        -1.5830   -5.1040    0.7530 o         1 MOL     -0.778401
    161 H72        -6.0860   -2.7380    0.6180 hn        1 MOL      0.271504
    162 H73        -4.7890   -5.1330    1.4640 h1        1 MOL      0.085994
    163 H74        -4.1830   -2.1780    2.1530 hc        1 MOL      0.029638
    164 H75        -3.7690   -2.9350    0.5770 hc        1 MOL      0.029638
    165 H76        -2.8420   -4.5490    2.8950 hc        1 MOL     -0.014618
    166 H77        -2.2820   -2.8850    2.9850 hc        1 MOL     -0.014618
    167 N15        -6.5530   -3.2360    3.5400 n         1 MOL     -0.250371
    168 C54        -7.2140   -3.0760    4.8170 c3        1 MOL     -0.257935
    169 H78        -7.3140   -4.0490    5.2990 h1        1 MOL      0.114230
    170 H79        -6.6240   -2.4160    5.4530 h1        1 MOL      0.114230
    171 H80        -8.2030   -2.6440    4.6630 h1        1 MOL      0.114230
    172 H81        -6.8500   -2.5850    2.8330 hn        1 MOL      0.217227
    173 Ca1        -0.3410   -5.0890   -1.4970 Ca        1 MOL      1.761290
    174 O23        -1.6310   -2.6910   -2.3720 oh        1 MOL     -0.831300
    175 H82        -1.3950   -2.2280   -3.1670 ho        1 MOL      0.413810
    176 H83        -1.9360   -2.0050   -1.7700 ho        1 MOL      0.413810
    177 O24         1.3800   -5.9490    0.3820 oh        1 MOL     -0.831300
    178 H84         1.8900   -6.7400    0.2260 ho        1 MOL      0.413810
    179 H85         1.5260   -5.7570    1.3160 ho        1 MOL      0.413810
    180 O25        -1.0790   -4.8230   -4.1140 oh        1 MOL     -0.831300
    181 H86        -1.1400   -5.2280   -4.9760 ho        1 MOL      0.413810
    182 H87        -1.2590   -3.9000   -4.2650 ho        1 MOL      0.413810
    183 O26        -2.9060   -5.8180   -1.8630 oh        1 MOL     -0.831300
    184 H88        -3.4710   -6.5830   -1.8430 ho        1 MOL      0.413810
    185 H89        -3.4960   -5.0720   -1.7220 ho        1 MOL      0.413810
    186 O27         1.5660   -6.5730   -2.8340 oh        1 MOL     -0.831300
    187 H90         2.3900   -7.0100   -2.6220 ho        1 MOL      0.413810
    188 H91         1.4050   -6.7900   -3.7610 ho        1 MOL      0.413810
    189 O28        -0.4380   -7.7750   -0.9910 oh        1 MOL     -0.831300
    190 H92        -0.4490   -8.3940   -1.7180 ho        1 MOL      0.413810
    191 H93        -0.4930   -8.3100   -0.2010 ho        1 MOL      0.413810
@<TRIPOS>BOND
     1    1    2 1   
     2    1    4 1   
     3    1    5 1   
     4    1    6 1   
     5    2    3 2   
     6    2    7 1   
     7    7    8 1   
     8    7   15 1   
     9    8    9 1   
    10    8   11 1   
    11    8   16 1   
    12    9   10 2   
    13    9   19 1   
    14   11   12 1   
    15   11   17 1   
    16   11   18 1   
    17   12   13 1   
    18   12   14 1   
    19   19   20 1   
    20   19   28 1   
    21   20   21 1   
    22   20   23 1   
    23   20   29 1   
    24   21   22 2   
    25   21   41 1   
    26   23   24 1   
    27   23   30 1   
    28   23   31 1   
    29   24   25 1   
    30   24   32 1   
    31   24   33 1   
    32   25   26 1   
    33   25   34 1   
    34   25   35 1   
    35   26   27 1   
    36   26   36 1   
    37   26   37 1   
    38   27   38 1   
    39   27   39 1   
    40   27   40 1   
    41   41   42 1   
    42   41   49 1   
    43   42   43 1   
    44   42   45 1   
    45   42   50 1   
    46   43   44 2   
    47   43   53 1   
    48   45   46 1   
    49   45   51 1   
    50   45   52 1   
    51   46   47 1   
    52   46   48 1   
    53   53   54 1   
    54   53   57 1   
    55   54   55 1   
    56   54   58 1   
    57   54   59 1   
    58   55   56 2   
    59   55   60 1   
    60   60   61 1   
    61   60   68 1   
    62   61   62 1   
    63   61   64 1   
    64   61   69 1   
    65   62   63 2   
    66   62   74 1   
    67   64   65 1   
    68   64   70 1   
    69   64   71 1   
    70   65   66 1   
    71   65   67 2   
    72   66   72 1   
    73   66   73 1   
    74   74   75 1   
    75   74   78 1   
    76   75   76 1   
    77   75   79 1   
    78   75   80 1   
    79   76   77 2   
    80   76   81 1   
    81   81   82 1   
    82   81   93 1   
    83   82   83 1   
    84   82   85 1   
    85   82   94 1   
    86   83   84 2   
    87   83  102 1   
    88   85   86 1   
    89   85   95 1   
    90   85   96 1   
    91   86   87 ar  
    92   86   88 ar  
    93   87   89 ar  
    94   87   97 1   
    95   88   90 ar  
    96   88   98 1   
    97   89   91 ar  
    98   89   99 1   
    99   90   91 ar  
   100   90  100 1   
   101   91   92 1   
   102   92  101 1   
   103  102  103 1   
   104  102  110 1   
   105  103  104 1   
   106  103  106 1   
   107  103  111 1   
   108  104  105 2   
   109  104  121 1   
   110  106  107 1   
   111  106  108 1   
   112  106  112 1   
   113  107  109 1   
   114  107  113 1   
   115  107  114 1   
   116  108  115 1   
   117  108  116 1   
   118  108  117 1   
   119  109  118 1   
   120  109  119 1   
   121  109  120 1   
   122  121  122 1   
   123  121  127 1   
   124  122  123 1   
   125  122  125 1   
   126  122  128 1   
   127  123  124 2   
   128  123  132 1   
   129  125  126 1   
   130  125  129 1   
   131  125  130 1   
   132  126  131 1   
   133  132  133 1   
   134  132  137 1   
   135  133  134 1   
   136  133  136 1   
   137  133  138 1   
   138  134  135 2   
   139  134  142 1   
   140  136  139 1   
   141  136  140 1   
   142  136  141 1   
   143  142  143 1   
   144  142  147 1   
   145  143  144 1   
   146  143  146 1   
   147  143  148 1   
   148  144  145 2   
   149  144  152 1   
   150  146  149 1   
   151  146  150 1   
   152  146  151 1   
   153  152  153 1   
   154  152  161 1   
   155  153  154 1   
   156  153  156 1   
   157  153  162 1   
   158  154  155 2   
   159  154  167 1   
   160  156  157 1   
   161  156  163 1   
   162  156  164 1   
   163  157  158 1   
   164  157  165 1   
   165  157  166 1   
   166  158  159 1   
   167  158  160 1   
   168  167  168 1   
   169  167  172 1   
   170  168  169 1   
   171  168  170 1   
   172  168  171 1   
   173  174  175 1   
   174  174  176 1   
   175  177  178 1   
   176  177  179 1   
   177  180  181 1   
   178  180  182 1   
   179  183  184 1   
   180  183  185 1   
   181  186  187 1   
   182  186  188 1   
   183  189  190 1   
   184  189  191 1   
@<TRIPOS>SUBSTRUCTURE
     1 MOL         1 TEMP              0 ****  ****    0 ROOT
