@<TRIPOS>MOLECULE
MOL
  189   185     1     0     0
SMALL
resp


@<TRIPOS>ATOM
      1 C1          4.9350    4.3270   -3.6110 c3        1 MOL     -0.332563
      2 C2          5.5710    3.4260   -2.4700 c         1 MOL      0.763178
      3 O1          4.9320    3.1120   -1.4540 o         1 MOL     -0.655889
      4 H1          3.9620    3.9230   -3.8920 hc        1 MOL      0.092635
      5 H2          4.8130    5.3460   -3.2440 hc        1 MOL      0.092635
      6 H3          5.5920    4.3300   -4.4810 hc        1 MOL      0.092635
      7 N1          6.8520    2.9640   -2.6200 n         1 MOL     -0.808246
      8 C3          7.4080    1.8330   -1.8290 c3        1 MOL      0.392156
      9 C4          6.4060    0.6730   -1.5960 c         1 MOL      0.478806
     10 O2          5.9090    0.3410   -0.4550 o         1 MOL     -0.699162
     11 C5          8.2400    2.2930   -0.6530 c3        1 MOL     -0.278374
     12 C6          7.7240    3.4980    0.1800 c         1 MOL      0.752622
     13 O3          6.7660    3.3540    0.9900 o         1 MOL     -0.718547
     14 O4          8.4030    4.5760    0.3010 o         1 MOL     -0.718547
     15 H4          7.4050    3.3570   -3.3670 hn        1 MOL      0.373944
     16 H5          8.1530    1.2740   -2.4000 h1        1 MOL     -0.009803
     17 H6          9.2760    2.4390   -0.9800 hc        1 MOL      0.054423
     18 H7          8.2220    1.4640    0.0460 hc        1 MOL      0.054423
     19 N2          6.0220    0.0550   -2.7200 n         1 MOL     -0.365407
     20 C7          5.2810   -1.1940   -2.9940 c3        1 MOL      0.050416
     21 C8          5.9120   -2.4190   -2.3790 c         1 MOL      0.339763
     22 O5          6.7160   -3.0670   -2.9800 o         1 MOL     -0.530826
     23 C9          3.7280   -0.9910   -2.6730 c3        1 MOL      0.340075
     24 C10         2.8940   -2.2450   -3.0000 c3        1 MOL      0.189771
     25 C11         3.1770    0.3230   -3.2260 c3        1 MOL     -0.149694
     26 C12         2.5300   -2.4930   -4.4690 c3        1 MOL     -0.621485
     27 H8          6.1780    0.6250   -3.5460 hn        1 MOL      0.215549
     28 H9          5.1770   -1.3270   -4.0720 h1        1 MOL     -0.004577
     29 H10         3.6870   -0.9040   -1.5900 hc        1 MOL     -0.161292
     30 H11         1.9840   -2.2020   -2.4140 hc        1 MOL     -0.001002
     31 H12         3.4640   -3.0940   -2.6300 hc        1 MOL     -0.001002
     32 H13         2.1470    0.4750   -2.9120 hc        1 MOL      0.013191
     33 H14         3.7130    1.1950   -2.8460 hc        1 MOL      0.013191
     34 H15         3.1540    0.2420   -4.3130 hc        1 MOL      0.013191
     35 H16         1.8900   -3.3720   -4.5800 hc        1 MOL      0.144200
     36 H17         2.0490   -1.5620   -4.7870 hc        1 MOL      0.144200
     37 H18         3.5030   -2.6970   -4.9110 hc        1 MOL      0.144200
     38 N3          5.7590   -2.5370   -1.0460 n         1 MOL     -0.390009
     39 C13         6.5500   -3.4300   -0.1310 c3        1 MOL      0.360826
     40 C14         5.7750   -4.7510    0.0880 c         1 MOL      0.525983
     41 O6          6.3080   -5.7980   -0.2120 o         1 MOL     -0.567853
     42 C15         7.0430   -2.6320    1.0890 c3        1 MOL     -0.443869
     43 C16         7.7060   -3.5550    2.0950 c         1 MOL      0.722186
     44 O7          7.0180   -4.1520    2.9640 o         1 MOL     -0.720265
     45 O8          8.9260   -3.9100    1.9590 o         1 MOL     -0.720265
     46 H19         5.2670   -1.7640   -0.6130 hn        1 MOL      0.522233
     47 H20         7.3920   -3.8600   -0.6610 h1        1 MOL     -0.002410
     48 H21         6.1730   -2.1930    1.5770 hc        1 MOL      0.102871
     49 H22         7.7580   -1.8340    0.8580 hc        1 MOL      0.102871
     50 N4          4.5070   -4.7970    0.4970 n         1 MOL     -0.502538
     51 C17         3.6710   -3.6220    0.7960 c3        1 MOL      0.225301
     52 C18         2.4460   -3.9690    1.6150 c         1 MOL      0.548744
     53 O9          1.7890   -4.9650    1.3440 o         1 MOL     -0.568400
     54 H23         4.0090   -5.6740    0.5730 hn        1 MOL      0.288347
     55 H24         3.3550   -3.1770   -0.1540 h1        1 MOL     -0.073262
     56 H25         4.2640   -2.9490    1.4130 h1        1 MOL     -0.073262
     57 N5          2.0160   -3.1710    2.6070 n         1 MOL     -0.465754
     58 C19         2.4200   -1.8290    3.0220 c3        1 MOL      0.130255
     59 C20         2.5160   -0.7560    1.8780 c         1 MOL      0.197542
     60 O10         3.5630   -0.2070    1.5440 o         1 MOL     -0.555176
     61 C21         3.5950   -1.9670    3.9650 c3        1 MOL     -0.294622
     62 C22         4.0270   -0.6230    4.5580 c         1 MOL      0.667551
     63 O11         3.2080    0.3220    4.7540 o         1 MOL     -0.653465
     64 O12         5.2680   -0.4190    4.8200 o         1 MOL     -0.653465
     65 H26         1.3970   -3.6540    3.2410 hn        1 MOL      0.287083
     66 H27         1.5890   -1.4780    3.6390 h1        1 MOL      0.063725
     67 H28         4.4060   -2.2610    3.2960 hc        1 MOL      0.113297
     68 H29         3.4390   -2.7500    4.7060 hc        1 MOL      0.113297
     69 N6          1.4410   -0.5120    1.1080 n         1 MOL     -0.120750
     70 C23         0.0920   -1.0930    1.2780 c3        1 MOL     -0.011724
     71 C24        -0.1750   -2.3490    0.5010 c         1 MOL      0.432025
     72 O13         0.5710   -2.7020   -0.3850 o         1 MOL     -0.407784
     73 H30         1.6170    0.0940    0.3240 hn        1 MOL      0.166181
     74 H31        -0.5850   -0.3190    0.9240 h1        1 MOL      0.069331
     75 H32        -0.0870   -1.1340    2.3490 h1        1 MOL      0.069331
     76 N7         -1.2170   -3.0700    0.8840 n         1 MOL     -0.435752
     77 C25        -1.7220   -4.2590    0.2440 c3        1 MOL      0.065597
     78 C26        -2.2910   -4.0740   -1.1680 c         1 MOL      0.474967
     79 O14        -2.2720   -4.9860   -1.9550 o         1 MOL     -0.551566
     80 C27        -2.5480   -5.0930    1.2360 c3        1 MOL     -0.004927
     81 C28        -3.6510   -4.3180    1.9930 c3        1 MOL     -0.020082
     82 C29        -4.9100   -4.0510    1.2230 c         1 MOL      0.582328
     83 N8         -5.8580   -4.9220    1.1400 n         1 MOL     -0.605134
     84 O15        -4.9440   -3.1590    0.4050 o         1 MOL     -0.540476
     85 H33        -1.8250   -2.7400    1.6200 hn        1 MOL      0.253988
     86 H34        -0.7690   -4.7590    0.0760 h1        1 MOL      0.084539
     87 H35        -1.7480   -5.3050    1.9420 hc        1 MOL      0.017389
     88 H36        -2.9400   -5.9860    0.7540 hc        1 MOL      0.017389
     89 H37        -3.2690   -3.3580    2.3670 hc        1 MOL      0.002411
     90 H38        -4.0010   -4.8900    2.8530 hc        1 MOL      0.002411
     91 H39        -5.8710   -5.7410    1.7350 hn        1 MOL      0.301823
     92 H40        -6.4860   -4.9460    0.3470 hn        1 MOL      0.301823
     93 N9         -2.8700   -2.8840   -1.5210 n         1 MOL     -0.180363
     94 C30        -3.2520   -2.4750   -2.9270 c3        1 MOL     -0.072238
     95 C31        -4.6710   -1.9350   -3.0480 c         1 MOL      0.355375
     96 O16        -5.0930   -1.7120   -4.2340 o         1 MOL     -0.548924
     97 C32        -2.1710   -1.5450   -3.5060 c3        1 MOL      0.301494
     98 C33        -0.8580   -2.2610   -3.8350 c3        1 MOL     -0.112780
     99 C34        -2.0280   -0.2730   -2.6720 c3        1 MOL     -0.112780
    100 H41        -2.8560   -2.1570   -0.8160 hn        1 MOL      0.158122
    101 H42        -3.1680   -3.3150   -3.6090 h1        1 MOL      0.092477
    102 H43        -2.5930   -1.3410   -4.4890 hc        1 MOL     -0.050165
    103 H44        -0.2820   -1.5310   -4.4040 hc        1 MOL      0.008294
    104 H45        -0.3890   -2.5560   -2.9020 hc        1 MOL      0.008294
    105 H46        -1.0400   -3.1720   -4.4100 hc        1 MOL      0.008294
    106 H47        -1.5340    0.4590   -3.3120 hc        1 MOL      0.008294
    107 H48        -3.0320    0.0890   -2.4770 hc        1 MOL      0.008294
    108 H49        -1.4480   -0.4150   -1.7610 hc        1 MOL      0.008294
    109 N10        -5.4370   -1.6540   -1.9320 n         1 MOL     -0.100107
    110 C35        -6.8060   -1.0910   -2.1190 c3        1 MOL      0.057105
    111 C36        -6.8300    0.3540   -1.5710 c         1 MOL      0.478881
    112 O17        -7.7680    1.0850   -1.7820 o         1 MOL     -0.546578
    113 C37        -7.8290   -2.1820   -1.7080 c3        1 MOL     -0.192439
    114 C38        -7.5720   -3.5530   -2.2060 c         1 MOL      0.521048
    115 N11        -7.5370   -3.7270   -3.4950 n         1 MOL     -0.682467
    116 O18        -7.3740   -4.4450   -1.3360 o         1 MOL     -0.533604
    117 H50        -5.1580   -2.0100   -1.0330 hn        1 MOL      0.127402
    118 H51        -6.9870   -0.9660   -3.1810 h1        1 MOL      0.056731
    119 H52        -8.7890   -1.9160   -2.1550 hc        1 MOL      0.089226
    120 H53        -8.0630   -2.1060   -0.6490 hc        1 MOL      0.089226
    121 H54        -7.6120   -3.0080   -4.2040 hn        1 MOL      0.351591
    122 H55        -7.3560   -4.6440   -3.8750 hn        1 MOL      0.351591
    123 N12        -5.9000    0.7560   -0.6380 n         1 MOL     -0.431726
    124 C39        -5.9970    2.0350    0.0840 c3        1 MOL      0.331029
    125 C40        -4.6730    2.8120    0.1270 c         1 MOL      0.324644
    126 O19        -3.6450    2.2180   -0.2170 o         1 MOL     -0.458062
    127 C41        -6.5230    1.7700    1.5410 c3        1 MOL     -0.222185
    128 C42        -7.7690    0.9360    1.7560 ca        1 MOL      0.011566
    129 C43        -8.9750    1.6000    1.6690 ca        1 MOL     -0.057143
    130 C44        -7.7460   -0.4190    2.1460 ca        1 MOL     -0.057143
    131 C45       -10.2580    0.9720    1.8350 ca        1 MOL     -0.289415
    132 C46        -8.9580   -1.0640    2.3980 ca        1 MOL     -0.289415
    133 C47       -10.2250   -0.3840    2.1250 ca        1 MOL      0.316920
    134 O20       -11.3700   -1.1350    2.1470 oh        1 MOL     -0.503437
    135 H56        -5.0640    0.2100   -0.4920 hn        1 MOL      0.235275
    136 H57        -6.7380    2.7010   -0.3660 h1        1 MOL      0.000107
    137 H58        -6.7240    2.7100    2.0500 hc        1 MOL      0.111476
    138 H59        -5.5990    1.3420    1.9390 hc        1 MOL      0.111476
    139 H60        -8.9180    2.6510    1.4250 ha        1 MOL      0.091180
    140 H61        -6.8030   -0.9430    2.1450 ha        1 MOL      0.091180
    141 H62       -11.1940    1.5120    1.8510 ha        1 MOL      0.134698
    142 H63        -8.9890   -2.1460    2.5030 ha        1 MOL      0.134698
    143 H64       -12.1620   -0.5900    2.1280 ho        1 MOL      0.364915
    144 N13        -4.6650    4.0300    0.6920 n         1 MOL     -0.587061
    145 C48        -3.5330    4.7910    1.3550 c3        1 MOL      0.277826
    146 C49        -2.3480    5.2500    0.4320 c         1 MOL      0.135276
    147 O21        -1.7460    6.2800    0.6260 o         1 MOL     -0.490327
    148 C50        -3.0580    4.0910    2.6650 c3        1 MOL     -0.078085
    149 C51        -4.0110    3.2950    3.4500 c3        1 MOL     -0.278854
    150 C52        -3.6060    3.1280    4.9500 c         1 MOL      0.766009
    151 O22        -2.5790    2.4920    5.1800 o         1 MOL     -0.740256
    152 O23        -4.3040    3.5910    5.8510 o         1 MOL     -0.740256
    153 H65        -5.6000    4.3970    0.8650 hn        1 MOL      0.315924
    154 H66        -3.9810    5.7780    1.5250 h1        1 MOL      0.021582
    155 H67        -2.6980    4.8540    3.3600 hc        1 MOL      0.084114
    156 H68        -2.2440    3.4360    2.3430 hc        1 MOL      0.084114
    157 H69        -4.1460    2.2610    3.1400 hc        1 MOL      0.020798
    158 H70        -5.0200    3.7020    3.4050 hc        1 MOL      0.020798
    159 N14        -1.9800    4.4750   -0.5570 n         1 MOL      0.050426
    160 C53        -0.9240    4.6170   -1.4800 c3        1 MOL     -0.314749
    161 C54        -1.2980    5.4470   -2.7780 c         1 MOL      0.527708
    162 O24        -0.4120    5.8500   -3.4700 o         1 MOL     -0.555934
    163 C55        -0.3350    3.1970   -1.8850 c3        1 MOL     -0.115054
    164 C56        -0.1400    2.2770   -0.6310 c3        1 MOL      0.272899
    165 C57         1.2180    2.7280   -0.0110 c         1 MOL      0.444760
    166 O25         1.2760    3.8560    0.5290 o         1 MOL     -0.566644
    167 O26         2.1400    1.9030   -0.1210 o         1 MOL     -0.566644
    168 H71        -2.5400    3.6400   -0.6800 hn        1 MOL      0.178605
    169 H72        -0.1700    5.1530   -0.8970 h1        1 MOL      0.191551
    170 H73         0.6290    3.2560   -2.4100 hc        1 MOL      0.050061
    171 H74        -1.0250    2.6150   -2.4950 hc        1 MOL      0.050061
    172 H75        -0.1310    1.2540   -1.0140 hc        1 MOL     -0.087633
    173 H76        -0.8820    2.3760    0.1620 hc        1 MOL     -0.087633
    174 N15        -2.5120    5.7220   -3.0770 n         1 MOL     -0.164058
    175 C58        -3.1030    6.4720   -4.1750 c3        1 MOL     -0.265145
    176 H77        -4.1220    6.1240   -4.3450 h1        1 MOL      0.101052
    177 H78        -3.1190    7.5320   -3.9240 h1        1 MOL      0.101052
    178 H79        -2.5120    6.3210   -5.0780 h1        1 MOL      0.101052
    179 H80        -3.2460    5.2620   -2.5600 hn        1 MOL      0.176050
    180 Ca1         4.3990    2.3020    1.0350 Ca        1 MOL      1.790717
    181 O27         3.9380    4.8460    0.8750 oh        1 MOL     -0.885282
    182 H81         3.0930    5.1040    0.5110 ho        1 MOL      0.417316
    183 H82         4.5300    5.5700    0.6340 ho        1 MOL      0.417316
    184 O28         5.8340    1.4950    3.0890 oh        1 MOL     -0.885282
    185 H83         6.6490    1.1000    2.7930 ho        1 MOL      0.417316
    186 H84         5.5790    0.9790    3.8530 ho        1 MOL      0.417316
    187 O29         2.9620    2.3990    3.2510 oh        1 MOL     -0.885282
    188 H85         2.0600    2.7040    3.3050 ho        1 MOL      0.417316
    189 H86         3.0270    1.7190    3.9180 ho        1 MOL      0.417316
@<TRIPOS>BOND
     1    1    2 1   
     2    1    4 1   
     3    1    5 1   
     4    1    6 1   
     5    2    3 2   
     6    2    7 1   
     7    7    8 1   
     8    7   15 1   
     9    8    9 1   
    10    8   11 1   
    11    8   16 1   
    12    9   10 2   
    13    9   19 1   
    14   11   12 1   
    15   11   17 1   
    16   11   18 1   
    17   12   13 1   
    18   12   14 1   
    19   19   20 1   
    20   19   27 1   
    21   20   21 1   
    22   20   23 1   
    23   20   28 1   
    24   21   22 2   
    25   21   38 1   
    26   23   24 1   
    27   23   25 1   
    28   23   29 1   
    29   24   26 1   
    30   24   30 1   
    31   24   31 1   
    32   25   32 1   
    33   25   33 1   
    34   25   34 1   
    35   26   35 1   
    36   26   36 1   
    37   26   37 1   
    38   38   39 1   
    39   38   46 1   
    40   39   40 1   
    41   39   42 1   
    42   39   47 1   
    43   40   41 2   
    44   40   50 1   
    45   42   43 1   
    46   42   48 1   
    47   42   49 1   
    48   43   44 1   
    49   43   45 1   
    50   50   51 1   
    51   50   54 1   
    52   51   52 1   
    53   51   55 1   
    54   51   56 1   
    55   52   53 2   
    56   52   57 1   
    57   57   58 1   
    58   57   65 1   
    59   58   59 1   
    60   58   61 1   
    61   58   66 1   
    62   59   60 2   
    63   59   69 1   
    64   61   62 1   
    65   61   67 1   
    66   61   68 1   
    67   62   63 1   
    68   62   64 1   
    69   69   70 1   
    70   69   73 1   
    71   70   71 1   
    72   70   74 1   
    73   70   75 1   
    74   71   72 2   
    75   71   76 1   
    76   76   77 1   
    77   76   85 1   
    78   77   78 1   
    79   77   80 1   
    80   77   86 1   
    81   78   79 2   
    82   78   93 1   
    83   80   81 1   
    84   80   87 1   
    85   80   88 1   
    86   81   82 1   
    87   81   89 1   
    88   81   90 1   
    89   82   83 1   
    90   82   84 2   
    91   83   91 1   
    92   83   92 1   
    93   93   94 1   
    94   93  100 1   
    95   94   95 1   
    96   94   97 1   
    97   94  101 1   
    98   95   96 2   
    99   95  109 1   
   100   97   98 1   
   101   97   99 1   
   102   97  102 1   
   103   98  103 1   
   104   98  104 1   
   105   98  105 1   
   106   99  106 1   
   107   99  107 1   
   108   99  108 1   
   109  109  110 1   
   110  109  117 1   
   111  110  111 1   
   112  110  113 1   
   113  110  118 1   
   114  111  112 2   
   115  111  123 1   
   116  113  114 1   
   117  113  119 1   
   118  113  120 1   
   119  114  115 1   
   120  114  116 2   
   121  115  121 1   
   122  115  122 1   
   123  123  124 1   
   124  123  135 1   
   125  124  125 1   
   126  124  127 1   
   127  124  136 1   
   128  125  126 2   
   129  125  144 1   
   130  127  128 1   
   131  127  137 1   
   132  127  138 1   
   133  128  129 ar  
   134  128  130 ar  
   135  129  131 ar  
   136  129  139 1   
   137  130  132 ar  
   138  130  140 1   
   139  131  133 ar  
   140  131  141 1   
   141  132  133 ar  
   142  132  142 1   
   143  133  134 1   
   144  134  143 1   
   145  144  145 1   
   146  144  153 1   
   147  145  146 1   
   148  145  148 1   
   149  145  154 1   
   150  146  147 2   
   151  146  159 1   
   152  148  149 1   
   153  148  155 1   
   154  148  156 1   
   155  149  150 1   
   156  149  157 1   
   157  149  158 1   
   158  150  151 1   
   159  150  152 1   
   160  159  160 1   
   161  159  168 1   
   162  160  161 1   
   163  160  163 1   
   164  160  169 1   
   165  161  162 2   
   166  161  174 1   
   167  163  164 1   
   168  163  170 1   
   169  163  171 1   
   170  164  165 1   
   171  164  172 1   
   172  164  173 1   
   173  165  166 1   
   174  165  167 1   
   175  174  175 1   
   176  174  179 1   
   177  175  176 1   
   178  175  177 1   
   179  175  178 1   
   180  181  182 1   
   181  181  183 1   
   182  184  185 1   
   183  184  186 1   
   184  187  188 1   
   185  187  189 1   
@<TRIPOS>SUBSTRUCTURE
     1 MOL         1 TEMP              0 ****  ****    0 ROOT
