@<TRIPOS>MOLECULE
MOL
  181   177     1     0     0
SMALL
resp


@<TRIPOS>ATOM
      1 C1          2.6960   -2.0870    4.5060 c3        1 MOL     -0.203259
      2 C2          3.7340   -1.3600    3.5810 c         1 MOL      0.469437
      3 O1          3.6960   -1.6020    2.4100 o         1 MOL     -0.415160
      4 H1          3.0450   -2.0540    5.5390 hc        1 MOL      0.049127
      5 H2          1.7300   -1.5870    4.4340 hc        1 MOL      0.049127
      6 H3          2.5930   -3.1250    4.1910 hc        1 MOL      0.049127
      7 N1          4.5780   -0.5440    4.1350 n         1 MOL     -0.478869
      8 C3          5.6880    0.1440    3.5070 c3        1 MOL      0.149739
      9 C4          6.4170   -0.6740    2.4510 c         1 MOL      0.401496
     10 O2          6.6670   -0.1740    1.3320 o         1 MOL     -0.415128
     11 C5          6.7430    0.5220    4.5660 c3        1 MOL     -0.144734
     12 C6          7.6300    1.5980    3.8910 c         1 MOL      0.667243
     13 O3          7.1640    2.6990    3.5100 o         1 MOL     -0.685855
     14 O4          8.7770    1.3040    3.5780 o         1 MOL     -0.685855
     15 H4          4.4510   -0.3650    5.1190 hn        1 MOL      0.304255
     16 H5          5.2460    1.0700    3.1350 h1        1 MOL      0.035457
     17 H6          7.2660   -0.3420    4.9630 hc        1 MOL     -0.022601
     18 H7          6.2160    0.9540    5.4140 hc        1 MOL     -0.022601
     19 N2          6.8470   -1.8800    2.7580 n         1 MOL     -0.437757
     20 C7          7.6520   -2.5930    1.8440 c3        1 MOL      0.445499
     21 C8          7.1060   -2.8290    0.3750 c         1 MOL      0.300308
     22 O5          7.8450   -2.8910   -0.5890 o         1 MOL     -0.486355
     23 C9          9.1510   -2.1390    1.9760 c3        1 MOL     -0.479442
     24 H8          6.6990   -2.2690    3.6800 hn        1 MOL      0.271700
     25 H9          7.6300   -3.6150    2.2270 h1        1 MOL     -0.041491
     26 H10         9.5110   -2.4360    2.9650 hc        1 MOL      0.118817
     27 H11         9.5950   -2.6540    1.1290 hc        1 MOL      0.118817
     28 H12         9.1750   -1.0560    1.8830 hc        1 MOL      0.118817
     29 N3          5.7960   -2.8980    0.2240 n         1 MOL     -0.433146
     30 C10         4.9090   -2.8790   -0.9750 c3        1 MOL      0.423327
     31 C11         5.2480   -1.8250   -2.0100 c         1 MOL      0.254205
     32 O6          5.3150   -2.0660   -3.2820 o         1 MOL     -0.475133
     33 C12         4.8290   -4.3260   -1.5870 c3        1 MOL     -0.180528
     34 C13         3.7730   -4.4200   -2.6860 c         1 MOL      0.547142
     35 O7          4.0510   -5.1000   -3.6950 o         1 MOL     -0.670304
     36 O8          2.6040   -3.9390   -2.6030 o         1 MOL     -0.670304
     37 H13         5.2510   -2.7810    1.0660 hn        1 MOL      0.172023
     38 H14         3.9040   -2.6090   -0.6310 h1        1 MOL     -0.015242
     39 H15         4.6570   -5.0210   -0.7650 hc        1 MOL      0.046841
     40 H16         5.7810   -4.5330   -2.0820 hc        1 MOL      0.046841
     41 N4          5.4310   -0.5570   -1.5960 n         1 MOL      0.000431
     42 C14         5.7910    0.5760   -2.4540 c3        1 MOL     -0.179495
     43 C15         4.6440    1.3230   -3.1310 c         1 MOL      0.530704
     44 O9          4.8850    2.3240   -3.8360 o         1 MOL     -0.567851
     45 H17         5.4260   -0.3990   -0.5960 hn        1 MOL      0.092954
     46 H18         6.4570    0.2250   -3.2430 h1        1 MOL      0.104024
     47 H19         6.4350    1.2360   -1.8610 h1        1 MOL      0.104024
     48 N5          3.4100    0.9690   -2.8720 n         1 MOL     -0.188721
     49 C16         2.2400    1.7220   -3.2680 c3        1 MOL     -0.166645
     50 C17         2.3630    3.2030   -2.8340 c         1 MOL      0.531265
     51 O10         2.8230    3.5670   -1.7510 o         1 MOL     -0.468368
     52 C18         0.9610    1.1430   -2.6810 c3        1 MOL     -0.474088
     53 C19         0.8130   -0.3390   -3.1170 c         1 MOL      0.816205
     54 N6          0.2610   -0.6710   -4.1860 n         1 MOL     -0.701876
     55 O11         1.3080   -1.2920   -2.4830 o         1 MOL     -0.568217
     56 H20         3.1620    0.1600   -2.3120 hn        1 MOL      0.160505
     57 H21         2.1410    1.7220   -4.3490 h1        1 MOL      0.063890
     58 H22         0.0670    1.6500   -3.0570 hc        1 MOL      0.170613
     59 H23         1.1450    1.2890   -1.6140 hc        1 MOL      0.170613
     60 H24        -0.1330    0.0190   -4.8150 hn        1 MOL      0.312717
     61 H25         0.4220   -1.5860   -4.5860 hn        1 MOL      0.312717
     62 N7          1.9190    4.1380   -3.7190 n         1 MOL     -0.301907
     63 C20         2.0670    5.6290   -3.6070 c3        1 MOL     -0.325175
     64 C21         0.8690    6.2300   -2.8790 c         1 MOL      0.546587
     65 O12        -0.2200    6.0990   -3.3380 o         1 MOL     -0.515327
     66 H26         1.5160    3.8110   -4.5900 hn        1 MOL      0.271905
     67 H27         1.9310    5.9290   -4.6520 h1        1 MOL      0.147608
     68 H28         2.9640    6.0370   -3.1520 h1        1 MOL      0.147608
     69 N8          1.1150    6.9460   -1.8200 n         1 MOL     -0.409538
     70 C22         0.1240    7.5000   -0.9020 c3        1 MOL     -0.178341
     71 C23        -0.6670    6.3870   -0.2310 c         1 MOL      0.521448
     72 O13        -1.8690    6.6200    0.0050 o         1 MOL     -0.552373
     73 C24         0.7670    8.4550    0.1140 c3        1 MOL      0.299974
     74 C25        -0.1860    8.9930    1.1430 c3        1 MOL     -0.276651
     75 O14         1.8530    7.9120    0.8320 oh        1 MOL     -0.603314
     76 H29         2.1060    7.0530   -1.6460 hn        1 MOL      0.288181
     77 H30        -0.5580    8.0590   -1.5500 h1        1 MOL      0.147934
     78 H31         1.1020    9.3850   -0.3490 h1        1 MOL      0.013159
     79 H32         1.9650    8.4810    1.5970 ho        1 MOL      0.398407
     80 H33        -1.0220    9.4800    0.6510 hc        1 MOL      0.072319
     81 H34        -0.5020    8.1040    1.6850 hc        1 MOL      0.072319
     82 H35         0.2850    9.7640    1.7470 hc        1 MOL      0.072319
     83 N9         -0.0060    5.3120    0.2600 n         1 MOL     -0.131970
     84 C26        -0.5600    4.1810    1.0220 c3        1 MOL     -0.260855
     85 C27        -1.1460    3.0660    0.1090 c         1 MOL      0.669354
     86 O15        -0.9280    3.0400   -1.1020 o         1 MOL     -0.527227
     87 C28         0.2430    3.6060    2.2490 c3        1 MOL      0.349132
     88 C29         1.4670    2.7290    1.8450 c3        1 MOL     -0.194978
     89 C30         0.8060    4.7500    3.1150 c3        1 MOL     -0.469779
     90 C31         2.4700    2.2930    2.9350 c3        1 MOL     -0.125254
     91 H36         0.9580    5.2830   -0.0410 hn        1 MOL      0.224628
     92 H37        -1.4470    4.5340    1.5510 h1        1 MOL      0.080107
     93 H38        -0.4580    3.0490    2.8640 hc        1 MOL     -0.027928
     94 H39         1.9740    3.3380    1.1020 hc        1 MOL      0.121849
     95 H40         1.0630    1.9090    1.2670 hc        1 MOL      0.121849
     96 H41         0.9870    4.3980    4.1310 hc        1 MOL      0.103350
     97 H42         1.6650    5.1420    2.5770 hc        1 MOL      0.103350
     98 H43         0.2110    5.6550    3.2090 hc        1 MOL      0.103350
     99 H44         2.8780    1.3110    2.6800 hc        1 MOL      0.047077
    100 H45         3.2530    3.0530    2.9140 hc        1 MOL      0.047077
    101 H46         2.0260    2.2010    3.9290 hc        1 MOL      0.047077
    102 N10        -1.7450    2.0520    0.7230 n         1 MOL     -0.699978
    103 C32        -2.0450    0.7420    0.1360 c3        1 MOL     -0.008949
    104 C33        -3.5400    0.3620    0.0730 c         1 MOL      0.599052
    105 O16        -3.8520   -0.7830    0.2290 o         1 MOL     -0.523960
    106 C34        -1.2050   -0.3450    0.8400 c3        1 MOL      0.321556
    107 C35        -0.7220   -1.3970   -0.1150 c         1 MOL      0.551301
    108 O17         0.1650   -2.1860    0.3050 o         1 MOL     -0.781173
    109 O18        -1.2050   -1.5290   -1.2590 o         1 MOL     -0.781173
    110 H47        -2.1650    2.2350    1.6210 hn        1 MOL      0.305987
    111 H48        -1.6570    0.7280   -0.8830 h1        1 MOL      0.054321
    112 H49        -1.6590   -0.7810    1.7280 hc        1 MOL     -0.040823
    113 H50        -0.3500    0.1370    1.3230 hc        1 MOL     -0.040823
    114 N11        -4.4640    1.3500   -0.0420 n         1 MOL     -0.442807
    115 C36        -5.8500    0.9820   -0.2640 c3        1 MOL      0.084162
    116 C37        -6.4130   -0.0080    0.8290 c         1 MOL      0.283130
    117 O19        -6.3180    0.3570    1.9850 o         1 MOL     -0.441321
    118 C38        -6.6780    2.2870   -0.3190 c3        1 MOL     -0.303802
    119 C39        -8.1250    2.0310   -0.5570 ca        1 MOL      0.177649
    120 C40        -8.5700    1.6810   -1.8790 ca        1 MOL     -0.202342
    121 C41        -9.0970    2.2960    0.4530 ca        1 MOL     -0.202342
    122 C42        -9.9480    1.4250   -2.0980 ca        1 MOL     -0.102159
    123 C43       -10.4760    2.1240    0.1700 ca        1 MOL     -0.102159
    124 C44       -10.8830    1.6570   -1.0760 ca        1 MOL     -0.120438
    125 H51        -4.1570    2.2900   -0.2320 hn        1 MOL      0.304310
    126 H52        -5.7850    0.5980   -1.2800 h1        1 MOL      0.067169
    127 H53        -6.2610    2.8470   -1.1640 hc        1 MOL      0.121325
    128 H54        -6.5100    2.8960    0.5720 hc        1 MOL      0.121325
    129 H55        -7.8260    1.4690   -2.6320 ha        1 MOL      0.135447
    130 H56        -8.7300    2.6160    1.4260 ha        1 MOL      0.135447
    131 H57       -10.3280    1.0620   -3.0410 ha        1 MOL      0.109646
    132 H58       -11.2290    2.4130    0.8870 ha        1 MOL      0.109646
    133 H59       -11.9170    1.5360   -1.3400 ha        1 MOL      0.099404
    134 N12        -6.9690   -1.1900    0.4310 n         1 MOL     -0.026252
    135 C45        -7.5820   -2.1090    1.3770 c3        1 MOL      0.034169
    136 C46        -6.5730   -2.7840    2.3420 c         1 MOL      0.200956
    137 O20        -6.8840   -3.3580    3.3940 o         1 MOL     -0.493045
    138 C47        -8.1940   -3.2310    0.5610 c3        1 MOL     -0.055620
    139 C48        -7.4110   -3.1010   -0.7620 c3        1 MOL      0.103524
    140 C49        -7.1000   -1.6380   -0.9870 c3        1 MOL     -0.148668
    141 H60        -8.3520   -1.6570    1.9990 h1        1 MOL      0.070961
    142 H61        -8.1070   -4.2600    0.9130 hc        1 MOL      0.042772
    143 H62        -9.2640   -3.0120    0.4860 hc        1 MOL      0.042772
    144 H63        -6.4800   -3.6440   -0.8570 hc        1 MOL     -0.025098
    145 H64        -8.1280   -3.4340   -1.5110 hc        1 MOL     -0.025098
    146 H65        -6.2290   -1.4630   -1.6260 h1        1 MOL      0.066860
    147 H66        -7.9550   -1.1380   -1.4360 h1        1 MOL      0.066860
    148 N13        -5.2650   -2.6500    1.9880 n         1 MOL     -0.013335
    149 C50        -4.1260   -3.1500    2.7450 c3        1 MOL     -0.182261
    150 C51        -3.7220   -2.2560    3.8890 c         1 MOL      0.473968
    151 O21        -3.0040   -2.6520    4.7980 o         1 MOL     -0.543737
    152 C52        -2.9940   -3.8700    1.9750 c3        1 MOL      0.169580
    153 C53        -3.4310   -5.0510    1.0770 c3        1 MOL     -0.228888
    154 C54        -2.3450   -5.4790    0.1280 c         1 MOL      0.754624
    155 O22        -2.0700   -4.8180   -0.9290 o         1 MOL     -0.746638
    156 O23        -1.6340   -6.3980    0.5020 o         1 MOL     -0.746638
    157 H67        -5.0030   -2.1300    1.1680 hn        1 MOL      0.236645
    158 H68        -4.4120   -4.0110    3.3540 h1        1 MOL      0.081669
    159 H69        -2.2190   -4.2070    2.6650 hc        1 MOL      0.033222
    160 H70        -2.7300   -3.0010    1.3680 hc        1 MOL      0.033222
    161 H71        -4.2440   -4.6840    0.4360 hc        1 MOL      0.030220
    162 H72        -3.7100   -5.9260    1.6610 hc        1 MOL      0.030220
    163 N14        -4.0810   -0.9210    3.7290 n         1 MOL     -0.146483
    164 C55        -3.8170    0.1950    4.6700 c3        1 MOL     -0.196249
    165 H73        -3.1450   -0.1460    5.4570 h1        1 MOL      0.083483
    166 H74        -3.3540    1.0230    4.1320 h1        1 MOL      0.083483
    167 H75        -4.7550    0.5280    5.1130 h1        1 MOL      0.083483
    168 H76        -4.5630   -0.7440    2.8640 hn        1 MOL      0.113006
    169 Ca1         0.0740   -3.7730   -2.1250 Ca        1 MOL      1.775221
    170 O24         0.8830   -3.3450   -4.6980 oh        1 MOL     -0.829712
    171 H77         0.7080   -3.2360   -5.6380 ho        1 MOL      0.406372
    172 H78         1.7010   -3.8270   -4.6640 ho        1 MOL      0.406372
    173 O25         0.8990   -5.2140    0.0040 oh        1 MOL     -0.829712
    174 H79         1.4710   -5.2260    0.7760 ho        1 MOL      0.406372
    175 H80         0.0670   -5.5660    0.3130 ho        1 MOL      0.406372
    176 O26         0.0900   -6.6130   -2.8160 oh        1 MOL     -0.829712
    177 H81         0.0280   -7.2500   -2.1010 ho        1 MOL      0.406372
    178 H82         0.3550   -7.1310   -3.5670 ho        1 MOL      0.406372
    179 O27        -1.7250   -4.3680   -4.1530 oh        1 MOL     -0.829712
    180 H83        -2.1990   -5.1900   -4.3060 ho        1 MOL      0.406372
    181 H84        -2.2490   -3.7040   -4.5970 ho        1 MOL      0.406372
@<TRIPOS>BOND
     1    1    2 1   
     2    1    4 1   
     3    1    5 1   
     4    1    6 1   
     5    2    3 2   
     6    2    7 1   
     7    7    8 1   
     8    7   15 1   
     9    8    9 1   
    10    8   11 1   
    11    8   16 1   
    12    9   10 2   
    13    9   19 1   
    14   11   12 1   
    15   11   17 1   
    16   11   18 1   
    17   12   13 1   
    18   12   14 1   
    19   19   20 1   
    20   19   24 1   
    21   20   21 1   
    22   20   23 1   
    23   20   25 1   
    24   21   22 2   
    25   21   29 1   
    26   23   26 1   
    27   23   27 1   
    28   23   28 1   
    29   29   30 1   
    30   29   37 1   
    31   30   31 1   
    32   30   33 1   
    33   30   38 1   
    34   31   32 2   
    35   31   41 1   
    36   33   34 1   
    37   33   39 1   
    38   33   40 1   
    39   34   35 1   
    40   34   36 1   
    41   41   42 1   
    42   41   45 1   
    43   42   43 1   
    44   42   46 1   
    45   42   47 1   
    46   43   44 2   
    47   43   48 1   
    48   48   49 1   
    49   48   56 1   
    50   49   50 1   
    51   49   52 1   
    52   49   57 1   
    53   50   51 2   
    54   50   62 1   
    55   52   53 1   
    56   52   58 1   
    57   52   59 1   
    58   53   54 1   
    59   53   55 2   
    60   54   60 1   
    61   54   61 1   
    62   62   63 1   
    63   62   66 1   
    64   63   64 1   
    65   63   67 1   
    66   63   68 1   
    67   64   65 2   
    68   64   69 1   
    69   69   70 1   
    70   69   76 1   
    71   70   71 1   
    72   70   73 1   
    73   70   77 1   
    74   71   72 2   
    75   71   83 1   
    76   73   74 1   
    77   73   75 1   
    78   73   78 1   
    79   74   80 1   
    80   74   81 1   
    81   74   82 1   
    82   75   79 1   
    83   83   84 1   
    84   83   91 1   
    85   84   85 1   
    86   84   87 1   
    87   84   92 1   
    88   85   86 2   
    89   85  102 1   
    90   87   88 1   
    91   87   89 1   
    92   87   93 1   
    93   88   90 1   
    94   88   94 1   
    95   88   95 1   
    96   89   96 1   
    97   89   97 1   
    98   89   98 1   
    99   90   99 1   
   100   90  100 1   
   101   90  101 1   
   102  102  103 1   
   103  102  110 1   
   104  103  104 1   
   105  103  106 1   
   106  103  111 1   
   107  104  105 2   
   108  104  114 1   
   109  106  107 1   
   110  106  112 1   
   111  106  113 1   
   112  107  108 1   
   113  107  109 1   
   114  114  115 1   
   115  114  125 1   
   116  115  116 1   
   117  115  118 1   
   118  115  126 1   
   119  116  117 2   
   120  116  134 1   
   121  118  119 1   
   122  118  127 1   
   123  118  128 1   
   124  119  120 ar  
   125  119  121 ar  
   126  120  122 ar  
   127  120  129 1   
   128  121  123 ar  
   129  121  130 1   
   130  122  124 ar  
   131  122  131 1   
   132  123  124 ar  
   133  123  132 1   
   134  124  133 1   
   135  134  135 1   
   136  134  140 1   
   137  135  136 1   
   138  135  138 1   
   139  135  141 1   
   140  136  137 2   
   141  136  148 1   
   142  138  139 1   
   143  138  142 1   
   144  138  143 1   
   145  139  140 1   
   146  139  144 1   
   147  139  145 1   
   148  140  146 1   
   149  140  147 1   
   150  148  149 1   
   151  148  157 1   
   152  149  150 1   
   153  149  152 1   
   154  149  158 1   
   155  150  151 2   
   156  150  163 1   
   157  152  153 1   
   158  152  159 1   
   159  152  160 1   
   160  153  154 1   
   161  153  161 1   
   162  153  162 1   
   163  154  155 1   
   164  154  156 1   
   165  163  164 1   
   166  163  168 1   
   167  164  165 1   
   168  164  166 1   
   169  164  167 1   
   170  170  171 1   
   171  170  172 1   
   172  173  174 1   
   173  173  175 1   
   174  176  177 1   
   175  176  178 1   
   176  179  180 1   
   177  179  181 1   
@<TRIPOS>SUBSTRUCTURE
     1 MOL         1 TEMP              0 ****  ****    0 ROOT
