@<TRIPOS>MOLECULE
MOL
  189   185     1     0     0
SMALL
resp


@<TRIPOS>ATOM
      1 C1          4.2090    4.2510   -2.9880 c3        1 MOL     -0.440146
      2 C2          5.0150    3.4450   -1.9520 c         1 MOL      0.752262
      3 O1          4.5300    2.9950   -0.8910 o         1 MOL     -0.593312
      4 H1          4.4070    5.3150   -2.8530 hc        1 MOL      0.117748
      5 H2          4.5050    3.9510   -3.9930 hc        1 MOL      0.117748
      6 H3          3.1450    4.0610   -2.8500 hc        1 MOL      0.117748
      7 N1          6.3010    3.1250   -2.2550 n         1 MOL     -0.736271
      8 C3          6.9910    1.9390   -1.6930 c3        1 MOL      0.311636
      9 C4          6.1670    0.6710   -1.5190 c         1 MOL      0.258608
     10 O2          5.7990    0.3060   -0.4070 o         1 MOL     -0.518994
     11 C5          7.8130    2.3830   -0.4500 c3        1 MOL     -0.150977
     12 C6          7.1780    3.3790    0.5130 c         1 MOL      0.864219
     13 O3          6.4830    2.9270    1.4030 o         1 MOL     -0.768934
     14 O4          7.5150    4.5850    0.5060 o         1 MOL     -0.768934
     15 H4          6.6640    3.4890   -3.1260 hn        1 MOL      0.337523
     16 H5          7.6400    1.5700   -2.4920 h1        1 MOL      0.002852
     17 H6          8.7220    2.8440   -0.8310 hc        1 MOL      0.008074
     18 H7          8.2390    1.5170    0.0750 hc        1 MOL      0.008074
     19 N2          5.6680    0.2410   -2.6360 n         1 MOL     -0.221832
     20 C7          4.8920   -0.9360   -2.9220 c3        1 MOL      0.009254
     21 C8          5.5790   -2.2340   -2.4740 c         1 MOL      0.348994
     22 O5          5.8980   -3.1120   -3.2660 o         1 MOL     -0.540119
     23 C9          3.4370   -0.7690   -2.4850 c3        1 MOL      0.083325
     24 C10         2.5180   -1.9670   -2.9010 c3        1 MOL     -0.002263
     25 C11         2.7680    0.5010   -2.8520 c3        1 MOL     -0.289540
     26 C12         2.4270   -2.0590   -4.4340 c3        1 MOL     -0.309233
     27 H8          6.0580    0.7120   -3.4460 hn        1 MOL      0.216504
     28 H9          4.9190   -0.9930   -4.0100 h1        1 MOL      0.059022
     29 H10         3.3730   -0.7390   -1.3960 hc        1 MOL     -0.071588
     30 H11         1.4800   -1.8390   -2.6020 hc        1 MOL      0.077126
     31 H12         2.8730   -2.9380   -2.5660 hc        1 MOL      0.077126
     32 H13         1.7140    0.3760   -2.6260 hc        1 MOL      0.066671
     33 H14         3.1130    1.3910   -2.3160 hc        1 MOL      0.066671
     34 H15         2.8790    0.6850   -3.9230 hc        1 MOL      0.066671
     35 H16         1.6220   -2.7780   -4.6300 hc        1 MOL      0.061773
     36 H17         2.0690   -1.1930   -4.9790 hc        1 MOL      0.061773
     37 H18         3.3740   -2.3470   -4.8790 hc        1 MOL      0.061773
     38 N3          5.7440   -2.3780   -1.1460 n         1 MOL     -0.016529
     39 C13         6.5990   -3.4700   -0.5220 c3        1 MOL     -0.113277
     40 C14         5.8940   -4.8310   -0.3740 c         1 MOL      0.582411
     41 O6          6.5130   -5.8650   -0.7050 o         1 MOL     -0.585073
     42 C15         7.3340   -3.1060    0.7140 c3        1 MOL     -0.148945
     43 C16         7.9440   -1.7800    0.8240 c         1 MOL      0.704417
     44 O7          8.6240   -1.2440   -0.1160 o         1 MOL     -0.696800
     45 O8          7.7730   -1.1730    1.9260 o         1 MOL     -0.696800
     46 H19         5.4780   -1.5790   -0.6030 hn        1 MOL      0.222626
     47 H20         7.3830   -3.6330   -1.2650 h1        1 MOL      0.087537
     48 H21         8.0650   -3.8940    0.9430 hc        1 MOL      0.040410
     49 H22         6.6050   -3.2800    1.5140 hc        1 MOL      0.040410
     50 N4          4.5740   -4.9800   -0.0220 n         1 MOL     -0.533795
     51 C17         3.7590   -3.9210    0.5430 c3        1 MOL      0.190363
     52 C18         2.4790   -4.4990    1.2230 c         1 MOL      0.510512
     53 O9          1.9400   -5.4980    0.8020 o         1 MOL     -0.564886
     54 H23         4.2100   -5.9180   -0.0370 hn        1 MOL      0.288908
     55 H24         3.5060   -3.2270   -0.2580 h1        1 MOL      0.010401
     56 H25         4.3100   -3.4160    1.3280 h1        1 MOL      0.010401
     57 N5          1.8480   -3.8870    2.2280 n         1 MOL     -0.500623
     58 C19         2.0270   -2.5190    2.7070 c3        1 MOL      0.230166
     59 C20         2.1660   -1.3670    1.6350 c         1 MOL      0.192871
     60 O10         3.3260   -0.8460    1.3340 o         1 MOL     -0.563239
     61 C21         3.1990   -2.5830    3.6530 c3        1 MOL     -0.328301
     62 C22         3.3600   -1.2810    4.4870 c         1 MOL      0.729714
     63 O11         4.4900   -0.7890    4.6960 o         1 MOL     -0.691042
     64 O12         2.3070   -0.7080    4.9180 o         1 MOL     -0.691042
     65 H26         1.0510   -4.4060    2.5850 hn        1 MOL      0.298999
     66 H27         1.1690   -2.3320    3.3470 h1        1 MOL      0.034463
     67 H28         4.1540   -2.6140    3.1320 hc        1 MOL      0.085108
     68 H29         3.1770   -3.4090    4.3530 hc        1 MOL      0.085108
     69 N6          1.0810   -0.8690    1.0230 n         1 MOL     -0.038105
     70 C23        -0.3700   -1.2740    1.2150 c3        1 MOL     -0.214337
     71 C24        -0.8200   -2.3900    0.2500 c         1 MOL      0.416351
     72 O13        -0.1240   -2.6770   -0.6850 o         1 MOL     -0.415672
     73 H30         1.2650   -0.0630    0.4480 hn        1 MOL      0.195062
     74 H31        -1.0560   -0.4250    1.1010 h1        1 MOL      0.096292
     75 H32        -0.6160   -1.6360    2.2100 h1        1 MOL      0.096292
     76 N7         -1.9000   -3.1600    0.6420 n         1 MOL     -0.405720
     77 C25        -2.4130   -4.2630   -0.1130 c3        1 MOL      0.133224
     78 C26        -2.7860   -3.9450   -1.5500 c         1 MOL      0.338917
     79 O14        -2.7640   -4.9710   -2.3290 o         1 MOL     -0.507451
     80 C27        -3.6070   -4.8950    0.6470 c3        1 MOL      0.108934
     81 C28        -3.2980   -5.4700    2.1310 c3        1 MOL     -0.486521
     82 C29        -4.5430   -5.7230    2.9170 c         1 MOL      0.765330
     83 N8         -4.4530   -5.6650    4.2190 n         1 MOL     -0.847568
     84 O15        -5.6320   -6.1220    2.5040 o         1 MOL     -0.565079
     85 H33        -2.4830   -2.8160    1.4020 hn        1 MOL      0.283992
     86 H34        -1.6970   -5.0840   -0.1920 h1        1 MOL      0.085522
     87 H35        -4.0210   -5.7340    0.0940 hc        1 MOL      0.031637
     88 H36        -4.3230   -4.0720    0.6380 hc        1 MOL      0.031637
     89 H37        -2.6470   -4.7920    2.7030 hc        1 MOL      0.125257
     90 H38        -2.7010   -6.3700    2.0440 hc        1 MOL      0.125257
     91 H39        -3.5800   -5.2400    4.5080 hn        1 MOL      0.377569
     92 H40        -5.2200   -5.8640    4.8430 hn        1 MOL      0.377569
     93 N9         -3.1510   -2.6830   -1.9110 n         1 MOL     -0.245975
     94 C30        -3.4690   -2.3720   -3.3110 c3        1 MOL     -0.036753
     95 C31        -4.8560   -1.7950   -3.5540 c         1 MOL      0.603569
     96 O16        -5.4960   -2.0850   -4.5460 o         1 MOL     -0.558948
     97 C32        -2.4110   -1.3910   -4.0110 c3        1 MOL      0.028192
     98 C33        -1.1230   -2.1120   -4.3360 c3        1 MOL     -0.070732
     99 C34        -2.0650   -0.1350   -3.2120 c3        1 MOL     -0.070732
    100 H41        -3.1790   -1.9910   -1.1780 hn        1 MOL      0.172808
    101 H42        -3.3890   -3.2870   -3.8970 h1        1 MOL      0.105753
    102 H43        -2.8370   -1.0670   -4.9630 hc        1 MOL      0.014516
    103 H44        -0.6900   -2.6230   -3.4790 hc        1 MOL      0.024826
    104 H45        -1.4200   -2.8760   -5.0500 hc        1 MOL      0.024826
    105 H46        -0.4090   -1.4700   -4.8450 hc        1 MOL      0.024826
    106 H47        -2.9590    0.2940   -2.7550 hc        1 MOL      0.024826
    107 H48        -1.3640   -0.4000   -2.4090 hc        1 MOL      0.024826
    108 H49        -1.5720    0.5860   -3.8680 hc        1 MOL      0.024826
    109 N10        -5.4390   -1.0720   -2.5340 n         1 MOL     -0.627621
    110 C35        -6.8680   -0.6780   -2.4000 c3        1 MOL      0.464574
    111 C36        -7.0830    0.7210   -1.9160 c         1 MOL      0.309992
    112 O17        -8.0700    1.3430   -2.2950 o         1 MOL     -0.492288
    113 C37        -7.4470   -1.6310   -1.3600 c3        1 MOL     -0.647818
    114 C38        -7.4330   -3.0660   -1.6720 c         1 MOL      0.860417
    115 N11        -8.0580   -3.3420   -2.7800 n         1 MOL     -0.831854
    116 O18        -6.9860   -3.9630   -0.9910 o         1 MOL     -0.601904
    117 H50        -4.8420   -0.9900   -1.7210 hn        1 MOL      0.335083
    118 H51        -7.4480   -0.8370   -3.3110 h1        1 MOL      0.028366
    119 H52        -8.4840   -1.2910   -1.2890 hc        1 MOL      0.129748
    120 H53        -6.9940   -1.5540   -0.3710 hc        1 MOL      0.129748
    121 H54        -8.4790   -2.6550   -3.3950 hn        1 MOL      0.370666
    122 H55        -8.0140   -4.2880   -3.1000 hn        1 MOL      0.370666
    123 N12        -6.1620    1.2890   -1.0650 n         1 MOL     -0.427247
    124 C39        -6.1670    2.5820   -0.4050 c3        1 MOL      0.475703
    125 C40        -4.8230    3.1240    0.0510 c         1 MOL      0.032331
    126 O19        -3.8270    2.3430    0.1270 o         1 MOL     -0.367817
    127 C41        -7.1790    2.5420    0.7700 c3        1 MOL     -0.371840
    128 C42        -7.2340    1.3530    1.7430 ca        1 MOL      0.243898
    129 C43        -8.2470    0.4180    1.5900 ca        1 MOL     -0.323411
    130 C44        -6.2660    1.2730    2.7640 ca        1 MOL     -0.323411
    131 C45        -8.1630   -0.7820    2.3360 ca        1 MOL     -0.099440
    132 C46        -6.2030    0.0710    3.4680 ca        1 MOL     -0.099440
    133 C47        -7.1350   -0.9650    3.2800 ca        1 MOL      0.162354
    134 O20        -6.9700   -2.1320    3.9180 oh        1 MOL     -0.419544
    135 H56        -5.3920    0.7180   -0.7390 hn        1 MOL      0.255144
    136 H57        -6.6310    3.3210   -1.0590 h1        1 MOL      0.016542
    137 H58        -8.1600    2.5950    0.3140 hc        1 MOL      0.087344
    138 H59        -6.9090    3.3890    1.3950 hc        1 MOL      0.087344
    139 H60        -8.9020    0.5160    0.7360 ha        1 MOL      0.193883
    140 H61        -5.4640    1.9950    2.8340 ha        1 MOL      0.193883
    141 H62        -8.9340   -1.5170    2.1430 ha        1 MOL      0.122682
    142 H63        -5.4350   -0.0530    4.2220 ha        1 MOL      0.122682
    143 H64        -7.6400   -2.7590    3.6520 ho        1 MOL      0.333556
    144 N13        -4.7600    4.4020    0.4370 n         1 MOL     -0.358785
    145 C48        -3.6300    5.2330    0.9760 c3        1 MOL     -0.072824
    146 C49        -2.3550    5.2380    0.0480 c         1 MOL      0.502231
    147 O21        -1.6860    6.2710    0.0210 o         1 MOL     -0.552873
    148 C50        -3.2630    4.8040    2.4010 c3        1 MOL      0.360194
    149 C51        -2.6430    5.8490    3.2850 c3        1 MOL     -0.462019
    150 C52        -2.1190    5.1390    4.5020 c         1 MOL      0.736670
    151 O22        -2.7720    5.2700    5.5600 o         1 MOL     -0.730909
    152 O23        -1.2590    4.2520    4.3560 o         1 MOL     -0.730909
    153 H65        -5.5830    4.9580    0.2610 hn        1 MOL      0.275461
    154 H66        -3.9100    6.2850    1.0550 h1        1 MOL      0.056975
    155 H67        -2.7390    3.8620    2.2620 hc        1 MOL      0.000967
    156 H68        -4.2130    4.5450    2.8740 hc        1 MOL      0.000967
    157 H69        -3.4900    6.4740    3.5940 hc        1 MOL      0.069473
    158 H70        -1.8090    6.2570    2.7290 hc        1 MOL      0.069473
    159 N14        -1.9290    4.1760   -0.6390 n         1 MOL     -0.308665
    160 C53        -0.8780    4.2350   -1.5930 c3        1 MOL     -0.290110
    161 C54        -1.2640    5.0330   -2.8060 c         1 MOL      0.658998
    162 O24        -0.4270    5.2210   -3.6750 o         1 MOL     -0.568662
    163 C55        -0.4410    2.7870   -1.8680 c3        1 MOL     -0.056147
    164 C56        -0.1650    1.8620   -0.6630 c3        1 MOL      0.405942
    165 C57         0.9330    2.3850    0.2310 c         1 MOL      0.483607
    166 O25         2.0390    1.8160    0.1510 o         1 MOL     -0.554490
    167 O26         0.6960    3.3580    0.9910 o         1 MOL     -0.554490
    168 H71        -2.3770    3.2990   -0.3950 hn        1 MOL      0.249283
    169 H72        -0.0300    4.7520   -1.1450 h1        1 MOL      0.202779
    170 H73         0.5140    2.8080   -2.3880 hc        1 MOL      0.007522
    171 H74        -1.1280    2.3830   -2.6110 hc        1 MOL      0.007522
    172 H75         0.0080    0.8830   -1.1000 hc        1 MOL     -0.134172
    173 H76        -1.0850    1.7160   -0.0980 hc        1 MOL     -0.134172
    174 N15        -2.4970    5.5170   -2.8670 n         1 MOL     -0.349513
    175 C58        -3.0090    6.3530   -3.9330 c3        1 MOL     -0.202275
    176 H77        -2.7370    7.3910   -3.7420 h1        1 MOL      0.088690
    177 H78        -2.5810    6.0340   -4.8830 h1        1 MOL      0.088690
    178 H79        -4.0950    6.2650   -3.9740 h1        1 MOL      0.088690
    179 H80        -3.0900    5.5270   -2.0520 hn        1 MOL      0.265030
    180 Ca1         4.2510    1.6350    1.2170 Ca        1 MOL      1.752569
    181 O27         2.5320    1.6170    3.4630 oh        1 MOL     -0.889512
    182 H81         2.5330    0.9530    4.1520 ho        1 MOL      0.418383
    183 H82         2.1700    2.3980    3.8960 ho        1 MOL      0.418383
    184 O28         5.9170    0.5170    2.9550 oh        1 MOL     -0.889512
    185 H83         5.5220   -0.0650    3.6130 ho        1 MOL      0.418383
    186 H84         6.5690   -0.0290    2.5130 ho        1 MOL      0.418383
    187 O29         3.5360    4.0580    2.0720 oh        1 MOL     -0.889512
    188 H85         3.8460    4.5030    2.8670 ho        1 MOL      0.418383
    189 H86         2.6270    4.3280    1.9700 ho        1 MOL      0.418383
@<TRIPOS>BOND
     1    1    2 1   
     2    1    4 1   
     3    1    5 1   
     4    1    6 1   
     5    2    3 2   
     6    2    7 1   
     7    7    8 1   
     8    7   15 1   
     9    8    9 1   
    10    8   11 1   
    11    8   16 1   
    12    9   10 2   
    13    9   19 1   
    14   11   12 1   
    15   11   17 1   
    16   11   18 1   
    17   12   13 1   
    18   12   14 1   
    19   19   20 1   
    20   19   27 1   
    21   20   21 1   
    22   20   23 1   
    23   20   28 1   
    24   21   22 2   
    25   21   38 1   
    26   23   24 1   
    27   23   25 1   
    28   23   29 1   
    29   24   26 1   
    30   24   30 1   
    31   24   31 1   
    32   25   32 1   
    33   25   33 1   
    34   25   34 1   
    35   26   35 1   
    36   26   36 1   
    37   26   37 1   
    38   38   39 1   
    39   38   46 1   
    40   39   40 1   
    41   39   42 1   
    42   39   47 1   
    43   40   41 2   
    44   40   50 1   
    45   42   43 1   
    46   42   48 1   
    47   42   49 1   
    48   43   44 1   
    49   43   45 1   
    50   50   51 1   
    51   50   54 1   
    52   51   52 1   
    53   51   55 1   
    54   51   56 1   
    55   52   53 2   
    56   52   57 1   
    57   57   58 1   
    58   57   65 1   
    59   58   59 1   
    60   58   61 1   
    61   58   66 1   
    62   59   60 2   
    63   59   69 1   
    64   61   62 1   
    65   61   67 1   
    66   61   68 1   
    67   62   63 1   
    68   62   64 1   
    69   69   70 1   
    70   69   73 1   
    71   70   71 1   
    72   70   74 1   
    73   70   75 1   
    74   71   72 2   
    75   71   76 1   
    76   76   77 1   
    77   76   85 1   
    78   77   78 1   
    79   77   80 1   
    80   77   86 1   
    81   78   79 2   
    82   78   93 1   
    83   80   81 1   
    84   80   87 1   
    85   80   88 1   
    86   81   82 1   
    87   81   89 1   
    88   81   90 1   
    89   82   83 1   
    90   82   84 2   
    91   83   91 1   
    92   83   92 1   
    93   93   94 1   
    94   93  100 1   
    95   94   95 1   
    96   94   97 1   
    97   94  101 1   
    98   95   96 2   
    99   95  109 1   
   100   97   98 1   
   101   97   99 1   
   102   97  102 1   
   103   98  103 1   
   104   98  104 1   
   105   98  105 1   
   106   99  106 1   
   107   99  107 1   
   108   99  108 1   
   109  109  110 1   
   110  109  117 1   
   111  110  111 1   
   112  110  113 1   
   113  110  118 1   
   114  111  112 2   
   115  111  123 1   
   116  113  114 1   
   117  113  119 1   
   118  113  120 1   
   119  114  115 1   
   120  114  116 2   
   121  115  121 1   
   122  115  122 1   
   123  123  124 1   
   124  123  135 1   
   125  124  125 1   
   126  124  127 1   
   127  124  136 1   
   128  125  126 2   
   129  125  144 1   
   130  127  128 1   
   131  127  137 1   
   132  127  138 1   
   133  128  129 ar  
   134  128  130 ar  
   135  129  131 ar  
   136  129  139 1   
   137  130  132 ar  
   138  130  140 1   
   139  131  133 ar  
   140  131  141 1   
   141  132  133 ar  
   142  132  142 1   
   143  133  134 1   
   144  134  143 1   
   145  144  145 1   
   146  144  153 1   
   147  145  146 1   
   148  145  148 1   
   149  145  154 1   
   150  146  147 2   
   151  146  159 1   
   152  148  149 1   
   153  148  155 1   
   154  148  156 1   
   155  149  150 1   
   156  149  157 1   
   157  149  158 1   
   158  150  151 1   
   159  150  152 1   
   160  159  160 1   
   161  159  168 1   
   162  160  161 1   
   163  160  163 1   
   164  160  169 1   
   165  161  162 2   
   166  161  174 1   
   167  163  164 1   
   168  163  170 1   
   169  163  171 1   
   170  164  165 1   
   171  164  172 1   
   172  164  173 1   
   173  165  166 1   
   174  165  167 1   
   175  174  175 1   
   176  174  179 1   
   177  175  176 1   
   178  175  177 1   
   179  175  178 1   
   180  181  182 1   
   181  181  183 1   
   182  184  185 1   
   183  184  186 1   
   184  187  188 1   
   185  187  189 1   
@<TRIPOS>SUBSTRUCTURE
     1 MOL         1 TEMP              0 ****  ****    0 ROOT
