@<TRIPOS>MOLECULE
MOL
  181   177     1     0     0
SMALL
resp


@<TRIPOS>ATOM
      1 C1          1.6770    7.2640   -1.6880 c3        1 MOL     -0.370273
      2 C2          2.9510    7.1740   -0.8280 c         1 MOL      0.665517
      3 O1          2.9530    7.5680    0.3670 o         1 MOL     -0.590371
      4 H1          1.2390    6.2720   -1.7920 hc        1 MOL      0.092474
      5 H2          0.9600    7.9290   -1.2060 hc        1 MOL      0.092474
      6 H3          1.9310    7.6550   -2.6740 hc        1 MOL      0.092474
      7 N1          4.0600    6.6410   -1.3690 n         1 MOL     -0.550581
      8 C3          5.3610    6.5710   -0.6690 c3        1 MOL      0.278388
      9 C4          5.3190    5.5310    0.5650 c         1 MOL      0.418766
     10 O2          6.2510    5.5650    1.4200 o         1 MOL     -0.512304
     11 C5          6.4450    6.3080   -1.7730 c3        1 MOL     -0.274925
     12 C6          7.8630    6.3350   -1.1970 c         1 MOL      0.731659
     13 O3          8.7090    5.4790   -1.5910 o         1 MOL     -0.730514
     14 O4          8.1610    7.2410   -0.3720 o         1 MOL     -0.730514
     15 H4          4.0300    6.3200   -2.3260 hn        1 MOL      0.274957
     16 H5          5.5190    7.5600   -0.2430 h1        1 MOL      0.031516
     17 H6          6.4120    6.9740   -2.6340 hc        1 MOL      0.030055
     18 H7          6.2960    5.2900   -2.1300 hc        1 MOL      0.030055
     19 N2          4.3670    4.6530    0.6740 n         1 MOL     -0.389339
     20 C7          4.2780    3.5860    1.6560 c3        1 MOL      0.366337
     21 C8          3.6110    2.3330    1.0210 c         1 MOL      0.455577
     22 O5          2.8310    2.4400    0.0720 o         1 MOL     -0.558000
     23 C9          3.3680    3.9260    2.7450 c3        1 MOL     -0.293965
     24 H8          3.6750    4.6520   -0.0690 hn        1 MOL      0.215255
     25 H9          5.2350    3.2780    2.0810 h1        1 MOL     -0.005604
     26 H10         3.2780    3.0980    3.4430 hc        1 MOL      0.077398
     27 H11         3.7610    4.7450    3.3500 hc        1 MOL      0.077398
     28 H12         2.3850    4.1700    2.3390 hc        1 MOL      0.077398
     29 N3          3.9190    1.1370    1.5170 n         1 MOL     -0.464224
     30 C10         4.9360    0.7100    2.4860 c3        1 MOL     -0.088251
     31 C11         5.7580   -0.4550    1.8740 c         1 MOL      0.632651
     32 O6          5.3920   -1.0660    0.8440 o         1 MOL     -0.519517
     33 C12         4.3580    0.3100    3.8450 c3        1 MOL     -0.342771
     34 C13         3.3650   -0.8860    3.7270 c         1 MOL      0.789269
     35 O7          3.8470   -2.0060    4.0530 o         1 MOL     -0.725556
     36 O8          2.1670   -0.6560    3.4670 o         1 MOL     -0.725556
     37 H13         3.4360    0.3630    1.0770 hn        1 MOL      0.350274
     38 H14         5.6290    1.5240    2.6940 h1        1 MOL      0.129937
     39 H15         3.9070    1.2390    4.2000 hc        1 MOL      0.098148
     40 H16         5.1790    0.0730    4.5150 hc        1 MOL      0.098148
     41 N4          6.9400   -0.7250    2.4300 n         1 MOL     -0.450317
     42 C14         7.7800   -1.7590    1.7240 c3        1 MOL      0.047767
     43 C15         8.7080   -1.1860    0.7010 c         1 MOL      0.440854
     44 O9          9.4290   -0.2060    1.0030 o         1 MOL     -0.510216
     45 H17         7.2720   -0.2390    3.2530 hn        1 MOL      0.315967
     46 H18         7.1150   -2.5650    1.4130 h1        1 MOL      0.056648
     47 H19         8.3410   -2.2330    2.5290 h1        1 MOL      0.056648
     48 N5          8.8210   -1.6940   -0.5300 n         1 MOL     -0.421234
     49 C16         7.9730   -2.7400   -1.1660 c3        1 MOL     -0.063203
     50 C17         6.7640   -2.0360   -1.8300 c         1 MOL      0.657721
     51 O10         6.9250   -0.9910   -2.4960 o         1 MOL     -0.526172
     52 C18         8.9490   -3.6550   -2.0300 c3        1 MOL     -0.171437
     53 C19         8.3960   -4.9920   -2.4350 c         1 MOL      0.662773
     54 N6          9.2000   -5.9150   -2.9370 n         1 MOL     -0.793508
     55 O11         7.2110   -5.2300   -2.3260 o         1 MOL     -0.562497
     56 H20         9.5260   -1.2970   -1.1320 hn        1 MOL      0.311184
     57 H21         7.6150   -3.4030   -0.3740 h1        1 MOL      0.089453
     58 H22         9.8940   -3.8270   -1.5010 hc        1 MOL      0.074721
     59 H23         9.1730   -3.2100   -2.9980 hc        1 MOL      0.074721
     60 H24        10.0780   -5.7220   -3.3810 hn        1 MOL      0.358571
     61 H25         8.5970   -6.6670   -3.2480 hn        1 MOL      0.358571
     62 N7          5.5830   -2.7020   -1.9300 n         1 MOL     -0.355029
     63 C20         4.3770   -2.1110   -2.4520 c3        1 MOL     -0.183800
     64 C21         3.2630   -3.1400   -2.5390 c         1 MOL      0.553970
     65 O12         3.3580   -4.1100   -3.3270 o         1 MOL     -0.535499
     66 H26         5.6060   -3.5200   -1.3430 hn        1 MOL      0.244706
     67 H27         4.6260   -1.7580   -3.4530 h1        1 MOL      0.099221
     68 H28         4.0950   -1.2670   -1.8240 h1        1 MOL      0.099221
     69 N8          2.2140   -2.9220   -1.7990 n         1 MOL     -0.335532
     70 C22         0.9790   -3.8130   -1.8260 c3        1 MOL     -0.050554
     71 C23        -0.2850   -3.0830   -1.4480 c         1 MOL      0.525635
     72 O13        -0.2540   -2.1240   -0.6650 o         1 MOL     -0.637682
     73 C24         1.0630   -4.9450   -0.8860 c3        1 MOL      0.374018
     74 C25         2.0970   -6.0480   -1.2880 c3        1 MOL     -0.540625
     75 O14         1.2950   -4.4480    0.4190 oh        1 MOL     -0.595877
     76 H29         2.1910   -2.0960   -1.2050 hn        1 MOL      0.305004
     77 H30         0.8140   -4.1170   -2.8550 h1        1 MOL      0.073839
     78 H31         0.1250   -5.5060   -0.8710 h1        1 MOL      0.036739
     79 H32         0.7410   -5.0330    0.9290 ho        1 MOL      0.377036
     80 H33         3.1120   -5.6640   -1.3600 hc        1 MOL      0.141150
     81 H34         2.0060   -6.8130   -0.5140 hc        1 MOL      0.141150
     82 H35         1.8770   -6.4520   -2.2770 hc        1 MOL      0.141150
     83 N9         -1.4680   -3.5530   -1.9420 n         1 MOL     -0.469632
     84 C26        -2.7920   -2.8890   -1.6170 c3        1 MOL      0.012836
     85 C27        -3.4920   -3.5720   -0.4690 c         1 MOL      0.305741
     86 O15        -3.6300   -4.7780   -0.3360 o         1 MOL     -0.518035
     87 C28        -3.6780   -2.7400   -2.8360 c3        1 MOL      0.323793
     88 C29        -4.7970   -1.6990   -2.7360 c3        1 MOL      0.254193
     89 C30        -2.7350   -2.3950   -3.9970 c3        1 MOL     -0.371655
     90 C31        -6.1300   -2.1120   -3.3640 c3        1 MOL     -0.283170
     91 H36        -1.4440   -4.3510   -2.5650 hn        1 MOL      0.275895
     92 H37        -2.4990   -1.8770   -1.3580 h1        1 MOL      0.264773
     93 H38        -4.1880   -3.6850   -3.0110 hc        1 MOL     -0.053729
     94 H39        -4.4930   -0.7970   -3.2690 hc        1 MOL     -0.111964
     95 H40        -5.1090   -1.5460   -1.7070 hc        1 MOL     -0.111964
     96 H41        -3.3030   -2.2360   -4.9140 hc        1 MOL      0.071756
     97 H42        -2.2360   -1.4700   -3.7170 hc        1 MOL      0.071756
     98 H43        -2.1650   -3.2890   -4.2430 hc        1 MOL      0.071756
     99 H44        -6.4470   -3.0850   -2.9830 hc        1 MOL      0.052927
    100 H45        -6.8120   -1.2810   -3.1690 hc        1 MOL      0.052927
    101 H46        -5.9600   -2.1920   -4.4390 hc        1 MOL      0.052927
    102 N10        -3.8420   -2.7270    0.4930 n         1 MOL     -0.250516
    103 C32        -4.7080   -2.8300    1.6420 c3        1 MOL      0.355120
    104 C33        -5.9350   -1.9700    1.7290 c         1 MOL      0.301161
    105 O16        -6.7550   -2.1730    2.6560 o         1 MOL     -0.517524
    106 C34        -4.0100   -2.6890    2.9680 c3        1 MOL     -0.320458
    107 C35        -2.7700   -3.5520    3.2000 c         1 MOL      0.745041
    108 O17        -2.7780   -4.3470    4.1850 o         1 MOL     -0.707414
    109 O18        -1.7330   -3.4220    2.5050 o         1 MOL     -0.707414
    110 H47        -3.4720   -1.7780    0.4430 hn        1 MOL     -0.025989
    111 H48        -5.1120   -3.8460    1.6120 h1        1 MOL      0.034429
    112 H49        -4.6800   -3.0900    3.7360 hc        1 MOL      0.084282
    113 H50        -3.8250   -1.6320    3.1400 hc        1 MOL      0.084282
    114 N11        -6.0280   -0.9670    0.8300 n         1 MOL     -0.615556
    115 C36        -7.2560   -0.1140    0.7710 c3        1 MOL      0.608364
    116 C37        -6.9430    1.2730    0.3480 c         1 MOL      0.056644
    117 O19        -7.1080    1.6920   -0.8020 o         1 MOL     -0.428991
    118 C38        -8.2150   -0.8370   -0.2120 c3        1 MOL     -0.218313
    119 C39        -9.6280   -0.2960   -0.4020 ca        1 MOL      0.135550
    120 C40       -10.2630   -0.2980   -1.6740 ca        1 MOL     -0.176000
    121 C41       -10.2720    0.1900    0.7150 ca        1 MOL     -0.176000
    122 C42       -11.6390    0.1940   -1.7140 ca        1 MOL     -0.133482
    123 C43       -11.6010    0.7450    0.6130 ca        1 MOL     -0.133482
    124 C44       -12.3130    0.7320   -0.6460 ca        1 MOL     -0.114392
    125 H51        -5.2160   -0.6280    0.3290 hn        1 MOL      0.513136
    126 H52        -7.8080   -0.0460    1.7080 h1        1 MOL     -0.076978
    127 H53        -8.4530   -1.7520    0.3390 hc        1 MOL      0.073405
    128 H54        -7.7150   -1.0160   -1.1620 hc        1 MOL      0.073405
    129 H55        -9.7340   -0.7040   -2.5220 ha        1 MOL      0.123238
    130 H56        -9.7820    0.0660    1.6620 ha        1 MOL      0.123238
    131 H57       -12.2110    0.2720   -2.6260 ha        1 MOL      0.103420
    132 H58       -12.0960    1.0760    1.5150 ha        1 MOL      0.103420
    133 H59       -13.3450    1.0400   -0.6840 ha        1 MOL      0.108745
    134 N12        -6.3750    2.1470    1.2380 n         1 MOL     -0.007150
    135 C45        -6.0770    3.5400    0.9880 c3        1 MOL      0.094053
    136 C46        -5.0990    3.8270   -0.2130 c         1 MOL      0.311476
    137 O20        -5.0440    4.9760   -0.6850 o         1 MOL     -0.498011
    138 C47        -5.7510    4.0930    2.3640 c3        1 MOL     -0.190555
    139 C48        -5.5340    2.9420    3.3330 c3        1 MOL     -0.033162
    140 C49        -6.3010    1.8170    2.6940 c3        1 MOL     -0.014894
    141 H60        -6.9890    4.0550    0.6680 h1        1 MOL      0.040925
    142 H61        -4.8750    4.7380    2.3040 hc        1 MOL      0.069337
    143 H62        -6.6140    4.6490    2.7440 hc        1 MOL      0.069337
    144 H63        -4.4770    2.7280    3.4630 hc        1 MOL      0.038020
    145 H64        -5.9960    3.1470    4.3100 hc        1 MOL      0.038020
    146 H65        -5.7640    0.8990    2.9390 h1        1 MOL      0.052019
    147 H66        -7.3010    1.7730    3.1110 h1        1 MOL      0.052019
    148 N13        -4.3460    2.7900   -0.6470 n         1 MOL     -0.014440
    149 C50        -3.4970    2.8190   -1.8820 c3        1 MOL     -0.367997
    150 C51        -4.3120    3.1220   -3.1450 c         1 MOL      0.580770
    151 O21        -3.7950    3.8430   -3.9840 o         1 MOL     -0.569881
    152 C52        -2.6370    1.5280   -2.0970 c3        1 MOL      0.303791
    153 C53        -1.6830    1.0020   -1.0050 c3        1 MOL     -0.513285
    154 C54        -2.4290    0.2630    0.0880 c         1 MOL      0.869387
    155 O22        -1.6860   -0.2560    1.0100 o         1 MOL     -0.726604
    156 O23        -3.6790    0.0830    0.0540 o         1 MOL     -0.726604
    157 H67        -4.2800    1.9010   -0.1700 hn        1 MOL      0.116501
    158 H68        -2.8210    3.6710   -1.7770 h1        1 MOL      0.127525
    159 H69        -2.1240    1.7400   -3.0430 hc        1 MOL     -0.017450
    160 H70        -3.3910    0.7920   -2.3440 hc        1 MOL     -0.017450
    161 H71        -1.3200    1.9130   -0.5340 hc        1 MOL      0.119858
    162 H72        -0.8810    0.3750   -1.4000 hc        1 MOL      0.119858
    163 N14        -5.4600    2.5100   -3.2730 n         1 MOL     -0.172803
    164 C55        -6.4410    2.7040   -4.3410 c3        1 MOL     -0.202036
    165 H73        -7.0740    1.8200   -4.4170 h1        1 MOL      0.088793
    166 H74        -7.0580    3.5740   -4.1140 h1        1 MOL      0.088793
    167 H75        -5.9230    2.8620   -5.2870 h1        1 MOL      0.088793
    168 H76        -5.7660    2.0490   -2.4220 hn        1 MOL      0.179525
    169 Ca1         0.1570   -1.7350    2.0500 Ca        1 MOL      1.839366
    170 O24        -1.0250   -0.7300    4.2780 oh        1 MOL     -0.947393
    171 H77        -1.6670   -0.0980    4.6160 ho        1 MOL      0.442388
    172 H78        -0.4320   -0.8910    5.0130 ho        1 MOL      0.442388
    173 O25         1.1400   -3.5430    3.5710 oh        1 MOL     -0.947393
    174 H79         0.7360   -4.1950    4.1480 ho        1 MOL      0.442388
    175 H80         2.0650   -3.5290    3.8480 ho        1 MOL      0.442388
    176 O26         2.8330   -2.0120    1.0700 oh        1 MOL     -0.947393
    177 H81         3.6780   -1.6590    0.7800 ho        1 MOL      0.442388
    178 H82         2.9080   -2.9500    0.9420 ho        1 MOL      0.442388
    179 O27         0.9100    0.5340    0.6750 oh        1 MOL     -0.947393
    180 H83         1.5600    1.2070    0.4790 ho        1 MOL      0.442388
    181 H84         0.0650    0.9350    0.4580 ho        1 MOL      0.442388
@<TRIPOS>BOND
     1    1    2 1   
     2    1    4 1   
     3    1    5 1   
     4    1    6 1   
     5    2    3 2   
     6    2    7 1   
     7    7    8 1   
     8    7   15 1   
     9    8    9 1   
    10    8   11 1   
    11    8   16 1   
    12    9   10 2   
    13    9   19 1   
    14   11   12 1   
    15   11   17 1   
    16   11   18 1   
    17   12   13 1   
    18   12   14 1   
    19   19   20 1   
    20   19   24 1   
    21   20   21 1   
    22   20   23 1   
    23   20   25 1   
    24   21   22 2   
    25   21   29 1   
    26   23   26 1   
    27   23   27 1   
    28   23   28 1   
    29   29   30 1   
    30   29   37 1   
    31   30   31 1   
    32   30   33 1   
    33   30   38 1   
    34   31   32 2   
    35   31   41 1   
    36   33   34 1   
    37   33   39 1   
    38   33   40 1   
    39   34   35 1   
    40   34   36 1   
    41   41   42 1   
    42   41   45 1   
    43   42   43 1   
    44   42   46 1   
    45   42   47 1   
    46   43   44 2   
    47   43   48 1   
    48   48   49 1   
    49   48   56 1   
    50   49   50 1   
    51   49   52 1   
    52   49   57 1   
    53   50   51 2   
    54   50   62 1   
    55   52   53 1   
    56   52   58 1   
    57   52   59 1   
    58   53   54 1   
    59   53   55 2   
    60   54   60 1   
    61   54   61 1   
    62   62   63 1   
    63   62   66 1   
    64   63   64 1   
    65   63   67 1   
    66   63   68 1   
    67   64   65 2   
    68   64   69 1   
    69   69   70 1   
    70   69   76 1   
    71   70   71 1   
    72   70   73 1   
    73   70   77 1   
    74   71   72 2   
    75   71   83 1   
    76   73   74 1   
    77   73   75 1   
    78   73   78 1   
    79   74   80 1   
    80   74   81 1   
    81   74   82 1   
    82   75   79 1   
    83   83   84 1   
    84   83   91 1   
    85   84   85 1   
    86   84   87 1   
    87   84   92 1   
    88   85   86 2   
    89   85  102 1   
    90   87   88 1   
    91   87   89 1   
    92   87   93 1   
    93   88   90 1   
    94   88   94 1   
    95   88   95 1   
    96   89   96 1   
    97   89   97 1   
    98   89   98 1   
    99   90   99 1   
   100   90  100 1   
   101   90  101 1   
   102  102  103 1   
   103  102  110 1   
   104  103  104 1   
   105  103  106 1   
   106  103  111 1   
   107  104  105 2   
   108  104  114 1   
   109  106  107 1   
   110  106  112 1   
   111  106  113 1   
   112  107  108 1   
   113  107  109 1   
   114  114  115 1   
   115  114  125 1   
   116  115  116 1   
   117  115  118 1   
   118  115  126 1   
   119  116  117 2   
   120  116  134 1   
   121  118  119 1   
   122  118  127 1   
   123  118  128 1   
   124  119  120 ar  
   125  119  121 ar  
   126  120  122 ar  
   127  120  129 1   
   128  121  123 ar  
   129  121  130 1   
   130  122  124 ar  
   131  122  131 1   
   132  123  124 ar  
   133  123  132 1   
   134  124  133 1   
   135  134  135 1   
   136  134  140 1   
   137  135  136 1   
   138  135  138 1   
   139  135  141 1   
   140  136  137 2   
   141  136  148 1   
   142  138  139 1   
   143  138  142 1   
   144  138  143 1   
   145  139  140 1   
   146  139  144 1   
   147  139  145 1   
   148  140  146 1   
   149  140  147 1   
   150  148  149 1   
   151  148  157 1   
   152  149  150 1   
   153  149  152 1   
   154  149  158 1   
   155  150  151 2   
   156  150  163 1   
   157  152  153 1   
   158  152  159 1   
   159  152  160 1   
   160  153  154 1   
   161  153  161 1   
   162  153  162 1   
   163  154  155 1   
   164  154  156 1   
   165  163  164 1   
   166  163  168 1   
   167  164  165 1   
   168  164  166 1   
   169  164  167 1   
   170  170  171 1   
   171  170  172 1   
   172  173  174 1   
   173  173  175 1   
   174  176  177 1   
   175  176  178 1   
   176  179  180 1   
   177  179  181 1   
@<TRIPOS>SUBSTRUCTURE
     1 MOL         1 TEMP              0 ****  ****    0 ROOT
