@<TRIPOS>MOLECULE
MOL
  192   187     1     0     0
SMALL
resp


@<TRIPOS>ATOM
      1 C1          4.5400    4.2820   -3.3750 c3        1 MOL     -0.229673
      2 C2          5.2200    3.5590   -2.1580 c         1 MOL      0.696377
      3 O1          4.5830    3.3470   -1.1650 o         1 MOL     -0.581914
      4 H1          5.2060    5.0560   -3.7560 hc        1 MOL      0.053355
      5 H2          4.3380    3.5570   -4.1620 hc        1 MOL      0.053355
      6 H3          3.6040    4.7360   -3.0500 hc        1 MOL      0.053355
      7 N1          6.4630    3.0840   -2.3750 n         1 MOL     -0.520827
      8 C3          7.1690    2.0070   -1.6840 c3        1 MOL      0.165599
      9 C4          6.1970    0.7740   -1.4280 c         1 MOL      0.331883
     10 O2          5.8680    0.4640   -0.3330 o         1 MOL     -0.427369
     11 C5          8.0250    2.3920   -0.4510 c3        1 MOL     -0.073373
     12 C6          7.4790    3.4660    0.3450 c         1 MOL      0.649976
     13 O3          6.6200    3.1890    1.2050 o         1 MOL     -0.712468
     14 O4          7.9130    4.6320    0.1270 o         1 MOL     -0.712468
     15 H4          6.8650    3.2850   -3.2770 hn        1 MOL      0.272491
     16 H5          7.9490    1.6530   -2.3680 h1        1 MOL      0.032366
     17 H6          9.0060    2.6070   -0.8770 hc        1 MOL      0.013293
     18 H7          8.1980    1.5580    0.2250 hc        1 MOL      0.013293
     19 N2          5.8090    0.3160   -2.6110 n         1 MOL     -0.455950
     20 C7          5.0950   -0.8780   -2.8890 c3        1 MOL      0.328104
     21 C8          5.7140   -2.1530   -2.2760 c         1 MOL      0.184480
     22 O5          6.1180   -3.0680   -3.0450 o         1 MOL     -0.550950
     23 C9          3.6350   -0.6330   -2.5640 c3        1 MOL      0.116477
     24 C10         2.6820   -1.7620   -3.0390 c3        1 MOL     -0.107693
     25 C11         2.9850    0.6800   -3.0430 c3        1 MOL     -0.201488
     26 C12         2.7420   -2.2470   -4.5190 c3        1 MOL     -0.135932
     27 H8          6.1290    0.8160   -3.4280 hn        1 MOL      0.264284
     28 H9          5.2040   -1.0070   -3.9670 h1        1 MOL     -0.017032
     29 H10         3.6110   -0.5630   -1.4700 hc        1 MOL     -0.077916
     30 H11         1.6560   -1.4960   -2.7640 hc        1 MOL      0.086260
     31 H12         2.9390   -2.6090   -2.4060 hc        1 MOL      0.086260
     32 H13         3.2280    0.7260   -4.1010 hc        1 MOL      0.031332
     33 H14         1.8970    0.6920   -2.8910 hc        1 MOL      0.031332
     34 H15         3.3530    1.5830   -2.5650 hc        1 MOL      0.031332
     35 H16         2.7990   -1.3670   -5.1690 hc        1 MOL      0.026655
     36 H17         3.5080   -2.9880   -4.7280 hc        1 MOL      0.026655
     37 H18         1.7980   -2.7040   -4.8420 hc        1 MOL      0.026655
     38 N3          5.9300   -2.2700   -0.9600 n         1 MOL      0.255346
     39 C13         6.7800   -3.2500   -0.4100 c3        1 MOL     -0.086550
     40 C14         6.1460   -4.5710   -0.2290 c         1 MOL      0.853614
     41 O6          6.8310   -5.4970   -0.6630 o         1 MOL     -0.609633
     42 C15         7.3670   -2.6830    0.8700 c3        1 MOL     -0.337777
     43 C16         8.4760   -3.6920    1.4250 c         1 MOL      0.681478
     44 O7          9.5090   -3.7730    0.7200 o         1 MOL     -0.701025
     45 O8          8.2450   -4.2800    2.4880 o         1 MOL     -0.701025
     46 H19         5.5810   -1.4740   -0.4510 hn        1 MOL     -0.060710
     47 H20         7.6480   -3.4070   -1.0460 h1        1 MOL      0.060976
     48 H21         6.5950   -2.5120    1.6220 hc        1 MOL      0.081877
     49 H22         7.7480   -1.6910    0.6200 hc        1 MOL      0.081877
     50 N4          4.8920   -4.8200    0.1770 n         1 MOL     -0.943848
     51 C17         3.9700   -3.8190    0.8040 c3        1 MOL      0.946825
     52 C18         2.8420   -4.3630    1.6150 c         1 MOL      0.286020
     53 O9          2.4900   -5.5620    1.5740 o         1 MOL     -0.583252
     54 H23         4.7640   -5.8020    0.3820 hn        1 MOL      0.355883
     55 H24         3.6000   -3.2130   -0.0280 h1        1 MOL     -0.231320
     56 H25         4.5920   -3.1620    1.4160 h1        1 MOL     -0.231320
     57 N5          2.1090   -3.5390    2.3300 n         1 MOL     -0.014504
     58 C19         2.3240   -2.0800    2.6090 c3        1 MOL     -0.301422
     59 C20         2.4340   -1.1810    1.3630 c         1 MOL      0.752014
     60 O10         3.5020   -0.6420    1.0500 o         1 MOL     -0.407849
     61 C21         3.4250   -1.8130    3.6220 c3        1 MOL     -0.446968
     62 C22         3.3510   -2.6590    4.8770 c         1 MOL      0.665244
     63 O11         4.3420   -3.3290    5.2450 o         1 MOL     -0.697039
     64 O12         2.3220   -2.6320    5.5360 o         1 MOL     -0.697039
     65 H26         1.2670   -3.9270    2.7460 hn        1 MOL      0.207477
     66 H27         1.3520   -1.8420    3.0430 h1        1 MOL      0.059364
     67 H28         3.1320   -0.8340    3.9720 hc        1 MOL      0.189760
     68 H29         4.4220   -1.8850    3.2000 hc        1 MOL      0.189760
     69 N6          1.4350   -1.0950    0.5220 n         1 MOL     -0.658787
     70 C23         0.0140   -1.4030    0.6840 c3        1 MOL     -0.067439
     71 C24        -0.4280   -2.7230    0.0790 c         1 MOL      0.394576
     72 O13         0.3500   -3.3690   -0.6230 o         1 MOL     -0.500887
     73 H30         1.7270   -0.6020   -0.3150 hn        1 MOL      0.436152
     74 H31        -0.5530   -0.5940    0.2170 h1        1 MOL      0.100442
     75 H32        -0.1860   -1.3310    1.7490 h1        1 MOL      0.100442
     76 N7         -1.7070   -3.0950    0.2390 n         1 MOL     -0.285471
     77 C25        -2.2860   -4.2610   -0.4450 c3        1 MOL      0.061223
     78 C26        -2.9200   -3.9640   -1.7920 c         1 MOL      0.333995
     79 O14        -3.2760   -4.8050   -2.5770 o         1 MOL     -0.507353
     80 C27        -3.3520   -4.8810    0.5510 c3        1 MOL     -0.213313
     81 C28        -4.6010   -3.9430    0.6520 c3        1 MOL     -0.094244
     82 C29        -5.6360   -4.6730    1.5240 c         1 MOL      0.584470
     83 N8         -6.7830   -4.9650    0.9540 n         1 MOL     -0.659747
     84 O15        -5.5500   -4.9200    2.7150 o         1 MOL     -0.563690
     85 H33        -2.2430   -2.5910    0.9300 hn        1 MOL      0.212744
     86 H34        -1.5570   -5.0570   -0.5810 h1        1 MOL      0.129521
     87 H35        -2.9320   -5.0020    1.5390 hc        1 MOL      0.088181
     88 H36        -3.7220   -5.7990    0.0910 hc        1 MOL      0.088181
     89 H37        -5.0940   -3.8880   -0.3090 hc        1 MOL      0.074140
     90 H38        -4.3290   -3.0220    1.1680 hc        1 MOL      0.074140
     91 H39        -7.1060   -4.6870    0.0450 hn        1 MOL      0.315088
     92 H40        -7.3980   -5.5100    1.5400 hn        1 MOL      0.315088
     93 N9         -3.0070   -2.6760   -2.1160 n         1 MOL      0.037552
     94 C30        -3.4180   -2.2190   -3.4500 c3        1 MOL     -0.317181
     95 C31        -4.8850   -1.6580   -3.3780 c         1 MOL      0.505658
     96 O16        -5.5680   -1.5280   -4.4270 o         1 MOL     -0.543120
     97 C32        -2.4620   -1.1950   -3.9730 c3        1 MOL      0.177659
     98 C33        -1.0130   -1.8970   -4.1390 c3        1 MOL     -0.101432
     99 C34        -2.1370    0.0400   -3.1490 c3        1 MOL     -0.101432
    100 H41        -2.8130   -2.0610   -1.3330 hn        1 MOL      0.160407
    101 H42        -3.3900   -2.9940   -4.2200 h1        1 MOL      0.179522
    102 H43        -2.7260   -0.7840   -4.9440 hc        1 MOL      0.018439
    103 H44        -0.7010   -2.5080   -3.2930 hc        1 MOL      0.017462
    104 H45        -1.1590   -2.4450   -5.0770 hc        1 MOL      0.017462
    105 H46        -0.1820   -1.2020   -4.2480 hc        1 MOL      0.017462
    106 H47        -1.3450    0.5540   -3.6870 hc        1 MOL      0.017462
    107 H48        -2.9430    0.7820   -3.1310 hc        1 MOL      0.017462
    108 H49        -1.8010   -0.2360   -2.1480 hc        1 MOL      0.017462
    109 N10        -5.4280   -1.3280   -2.1920 n         1 MOL     -0.311317
    110 C35        -6.8090   -0.8020   -1.9420 c3        1 MOL      0.075065
    111 C36        -6.8390    0.5280   -1.1130 c         1 MOL      0.596278
    112 O17        -7.7510    1.3660   -1.2670 o         1 MOL     -0.581054
    113 C37        -7.5280   -1.8700   -1.1020 c3        1 MOL     -0.365021
    114 C38        -8.0050   -3.0590   -1.9320 c         1 MOL      0.804075
    115 N11        -8.7420   -2.8340   -3.0130 n         1 MOL     -0.856526
    116 O18        -7.7360   -4.1990   -1.6240 o         1 MOL     -0.577508
    117 H50        -4.7550   -1.3550   -1.4340 hn        1 MOL      0.107246
    118 H51        -7.2720   -0.5810   -2.9070 h1        1 MOL      0.076932
    119 H52        -8.4420   -1.4600   -0.6820 hc        1 MOL      0.100513
    120 H53        -6.9400   -2.3270   -0.3070 hc        1 MOL      0.100513
    121 H54        -8.8580   -1.9110   -3.4050 hn        1 MOL      0.382616
    122 H55        -8.9620   -3.5700   -3.6720 hn        1 MOL      0.382616
    123 N12        -5.8340    0.8530   -0.3240 n         1 MOL     -0.537313
    124 C39        -5.8240    1.9170    0.6410 c3        1 MOL      0.332523
    125 C40        -4.5460    2.7180    0.5050 c         1 MOL      0.486997
    126 O19        -3.5130    2.1300    0.2800 o         1 MOL     -0.521823
    127 C41        -5.9970    1.3460    2.1270 c3        1 MOL     -0.137974
    128 C42        -7.1100    0.2590    2.2010 ca        1 MOL     -0.099088
    129 C43        -8.4680    0.6520    2.0980 ca        1 MOL     -0.045685
    130 C44        -6.7840   -1.1160    2.5060 ca        1 MOL     -0.045685
    131 C45        -9.5090   -0.2500    2.3170 ca        1 MOL     -0.313533
    132 C46        -7.8470   -2.0170    2.5810 ca        1 MOL     -0.313533
    133 C47        -9.2060   -1.5920    2.5210 ca        1 MOL      0.416573
    134 O20       -10.1580   -2.4960    2.7460 oh        1 MOL     -0.526947
    135 H56        -5.1290    0.1470   -0.2140 hn        1 MOL      0.251143
    136 H57        -6.6010    2.6750    0.5720 h1        1 MOL     -0.002280
    137 H58        -6.3140    2.1840    2.7400 hc        1 MOL      0.095750
    138 H59        -5.0600    0.9870    2.5450 hc        1 MOL      0.095750
    139 H60        -8.6290    1.7140    2.0060 ha        1 MOL      0.109478
    140 H61        -5.7400   -1.3650    2.5470 ha        1 MOL      0.109478
    141 H62       -10.5380    0.0680    2.2690 ha        1 MOL      0.136251
    142 H63        -7.7120   -3.0610    2.8170 ha        1 MOL      0.136251
    143 H64       -11.0250   -2.1670    2.9880 ho        1 MOL      0.382414
    144 N13        -4.7100    4.0390    0.7470 n         1 MOL     -0.683300
    145 C48        -3.6500    5.0500    1.0360 c3        1 MOL      0.218473
    146 C49        -2.4660    5.2540    0.0490 c         1 MOL      0.300897
    147 O21        -1.8230    6.3100    0.1220 o         1 MOL     -0.488344
    148 C50        -3.1020    4.7180    2.4850 c3        1 MOL     -0.402960
    149 C51        -4.1590    4.8470    3.5840 c3        1 MOL      0.044245
    150 C52        -3.7180    5.9450    4.4700 c         1 MOL      0.660345
    151 O22        -2.8040    5.7280    5.2770 o         1 MOL     -0.723782
    152 O23        -4.4780    7.0040    4.5190 o         1 MOL     -0.723782
    153 H65        -5.6210    4.4160    0.9820 hn        1 MOL      0.395374
    154 H66        -4.1360    6.0200    0.9860 h1        1 MOL      0.055735
    155 H67        -2.3180    5.4480    2.6450 hc        1 MOL      0.178700
    156 H68        -2.7480    3.6900    2.4150 hc        1 MOL      0.178700
    157 H69        -4.2550    3.8840    4.0860 hc        1 MOL     -0.052136
    158 H70        -5.0970    5.1520    3.1060 hc        1 MOL     -0.052136
    159 N14        -2.0470    4.2520   -0.7580 n         1 MOL     -0.187974
    160 C53        -0.8910    4.4830   -1.6930 c3        1 MOL     -0.206337
    161 C54        -1.1520    5.3080   -3.0100 c         1 MOL      0.460483
    162 O24        -0.2520    5.6350   -3.7940 o         1 MOL     -0.521088
    163 C55        -0.4120    3.0750   -2.1240 c3        1 MOL      0.058283
    164 C56         0.0710    2.1320   -1.0570 c3        1 MOL      0.158926
    165 C57         1.2850    2.6520   -0.2170 c         1 MOL      0.505021
    166 O25         1.2320    3.7870    0.3600 o         1 MOL     -0.592572
    167 O26         2.2210    1.8770    0.0640 o         1 MOL     -0.592572
    168 H71        -2.3520    3.2890   -0.6670 hn        1 MOL      0.218089
    169 H72        -0.0750    5.0150   -1.2070 h1        1 MOL      0.170654
    170 H73         0.3570    3.1780   -2.8830 hc        1 MOL      0.003699
    171 H74        -1.2100    2.5850   -2.6830 hc        1 MOL      0.003699
    172 H75         0.3110    1.2360   -1.6190 hc        1 MOL     -0.079223
    173 H76        -0.8030    1.8260   -0.4820 hc        1 MOL     -0.079223
    174 N15        -2.4440    5.6790   -3.2380 n         1 MOL     -0.196929
    175 C58        -2.8450    6.5020   -4.3240 c3        1 MOL     -0.129614
    176 H77        -3.3200    7.4040   -3.9390 h1        1 MOL      0.063239
    177 H78        -1.9720    6.7760   -4.9150 h1        1 MOL      0.063239
    178 H79        -3.5520    5.9580   -4.9500 h1        1 MOL      0.063239
    179 H80        -3.1050    5.2120   -2.6460 hn        1 MOL      0.195017
    180 Ca1         4.3880    1.9830    1.4220 Ca        1 MOL      1.529615
    181 O27         5.4110    0.4120    3.2950 oh        1 MOL     -0.791029
    182 H81         6.2810    0.0450    3.4730 ho        1 MOL      0.392824
    183 H82         5.0670    0.6500    4.1530 ho        1 MOL      0.392824
    184 O28         5.2280    3.4870    3.6680 oh        1 MOL     -0.791029
    185 H83         5.7630    3.1660    4.3950 ho        1 MOL      0.392824
    186 H84         5.7810    4.1280    3.2260 ho        1 MOL      0.392824
    187 O29         3.4850    4.4080    1.2990 oh        1 MOL     -0.791029
    188 H85         4.0450    5.1350    1.0380 ho        1 MOL      0.392824
    189 H86         2.7130    4.4910    0.7410 ho        1 MOL      0.392824
    190 O30         2.5840    1.6590    3.2990 oh        1 MOL     -0.791029
    191 H87         2.2470    1.4710    4.1770 ho        1 MOL      0.392824
    192 H88         1.8080    1.8300    2.7760 ho        1 MOL      0.392824
@<TRIPOS>BOND
     1    1    2 1   
     2    1    4 1   
     3    1    5 1   
     4    1    6 1   
     5    2    3 2   
     6    2    7 1   
     7    7    8 1   
     8    7   15 1   
     9    8    9 1   
    10    8   11 1   
    11    8   16 1   
    12    9   10 2   
    13    9   19 1   
    14   11   12 1   
    15   11   17 1   
    16   11   18 1   
    17   12   13 1   
    18   12   14 1   
    19   19   20 1   
    20   19   27 1   
    21   20   21 1   
    22   20   23 1   
    23   20   28 1   
    24   21   22 2   
    25   21   38 1   
    26   23   24 1   
    27   23   25 1   
    28   23   29 1   
    29   24   26 1   
    30   24   30 1   
    31   24   31 1   
    32   25   32 1   
    33   25   33 1   
    34   25   34 1   
    35   26   35 1   
    36   26   36 1   
    37   26   37 1   
    38   38   39 1   
    39   38   46 1   
    40   39   40 1   
    41   39   42 1   
    42   39   47 1   
    43   40   41 2   
    44   40   50 1   
    45   42   43 1   
    46   42   48 1   
    47   42   49 1   
    48   43   44 1   
    49   43   45 1   
    50   50   51 1   
    51   50   54 1   
    52   51   52 1   
    53   51   55 1   
    54   51   56 1   
    55   52   53 2   
    56   52   57 1   
    57   57   58 1   
    58   57   65 1   
    59   58   59 1   
    60   58   61 1   
    61   58   66 1   
    62   59   60 2   
    63   59   69 1   
    64   61   62 1   
    65   61   67 1   
    66   61   68 1   
    67   62   63 1   
    68   62   64 1   
    69   69   70 1   
    70   69   73 1   
    71   70   71 1   
    72   70   74 1   
    73   70   75 1   
    74   71   72 2   
    75   71   76 1   
    76   76   77 1   
    77   76   85 1   
    78   77   78 1   
    79   77   80 1   
    80   77   86 1   
    81   78   79 2   
    82   78   93 1   
    83   80   81 1   
    84   80   87 1   
    85   80   88 1   
    86   81   82 1   
    87   81   89 1   
    88   81   90 1   
    89   82   83 1   
    90   82   84 2   
    91   83   91 1   
    92   83   92 1   
    93   93   94 1   
    94   93  100 1   
    95   94   95 1   
    96   94   97 1   
    97   94  101 1   
    98   95   96 2   
    99   95  109 1   
   100   97   98 1   
   101   97   99 1   
   102   97  102 1   
   103   98  103 1   
   104   98  104 1   
   105   98  105 1   
   106   99  106 1   
   107   99  107 1   
   108   99  108 1   
   109  109  110 1   
   110  109  117 1   
   111  110  111 1   
   112  110  113 1   
   113  110  118 1   
   114  111  112 2   
   115  111  123 1   
   116  113  114 1   
   117  113  119 1   
   118  113  120 1   
   119  114  115 1   
   120  114  116 2   
   121  115  121 1   
   122  115  122 1   
   123  123  124 1   
   124  123  135 1   
   125  124  125 1   
   126  124  127 1   
   127  124  136 1   
   128  125  126 2   
   129  125  144 1   
   130  127  128 1   
   131  127  137 1   
   132  127  138 1   
   133  128  129 ar  
   134  128  130 ar  
   135  129  131 ar  
   136  129  139 1   
   137  130  132 ar  
   138  130  140 1   
   139  131  133 ar  
   140  131  141 1   
   141  132  133 ar  
   142  132  142 1   
   143  133  134 1   
   144  134  143 1   
   145  144  145 1   
   146  144  153 1   
   147  145  146 1   
   148  145  148 1   
   149  145  154 1   
   150  146  147 2   
   151  146  159 1   
   152  148  149 1   
   153  148  155 1   
   154  148  156 1   
   155  149  150 1   
   156  149  157 1   
   157  149  158 1   
   158  150  151 1   
   159  150  152 1   
   160  159  160 1   
   161  159  168 1   
   162  160  161 1   
   163  160  163 1   
   164  160  169 1   
   165  161  162 2   
   166  161  174 1   
   167  163  164 1   
   168  163  170 1   
   169  163  171 1   
   170  164  165 1   
   171  164  172 1   
   172  164  173 1   
   173  165  166 1   
   174  165  167 1   
   175  174  175 1   
   176  174  179 1   
   177  175  176 1   
   178  175  177 1   
   179  175  178 1   
   180  181  182 1   
   181  181  183 1   
   182  184  185 1   
   183  184  186 1   
   184  187  188 1   
   185  187  189 1   
   186  190  191 1   
   187  190  192 1   
@<TRIPOS>SUBSTRUCTURE
     1 MOL         1 TEMP              0 ****  ****    0 ROOT
