@<TRIPOS>MOLECULE
MOL
  195   189     1     0     0
SMALL
resp


@<TRIPOS>ATOM
      1 C1          6.4390    0.8030    5.5310 c3        1 MOL     -0.268621
      2 C2          5.7340    0.6780    4.1410 c         1 MOL      0.749187
      3 O1          5.4200    1.6460    3.5160 o         1 MOL     -0.601261
      4 H1          7.2540    0.0810    5.5910 hc        1 MOL      0.067617
      5 H2          6.8370    1.8110    5.6490 hc        1 MOL      0.067617
      6 H3          5.7180    0.6010    6.3230 hc        1 MOL      0.067617
      7 N1          5.5640   -0.5410    3.6470 n         1 MOL     -0.478286
      8 C3          5.1950   -0.8520    2.2420 c3        1 MOL      0.128858
      9 C4          3.7420   -0.4220    1.7630 c         1 MOL     -0.035826
     10 O2          3.3150   -0.7060    0.6470 o         1 MOL     -0.086805
     11 C5          5.4720   -2.3290    2.0990 c3        1 MOL     -0.235500
     12 C6          4.6820   -3.2520    3.0580 c         1 MOL      0.723828
     13 O3          5.0330   -3.2150    4.2940 o         1 MOL     -0.689655
     14 O4          3.8520   -4.0570    2.6340 o         1 MOL     -0.689655
     15 H4          5.8340   -1.2620    4.3000 hn        1 MOL      0.250599
     16 H5          5.9800   -0.3860    1.6560 h1        1 MOL      0.118773
     17 H6          6.5420   -2.5190    2.2090 hc        1 MOL      0.065091
     18 H7          5.1980   -2.7450    1.1200 hc        1 MOL      0.065091
     19 N2          2.9030    0.2510    2.6290 n         1 MOL     -0.146529
     20 C7          1.4410    0.1480    2.7910 c3        1 MOL      0.012072
     21 C8          0.7690    1.5230    2.7390 c         1 MOL      0.694058
     22 O5          0.9200    2.3040    3.6330 o         1 MOL     -0.577397
     23 C9          1.0660   -0.6850    4.0260 c3        1 MOL     -0.247443
     24 C10         2.0090   -1.7550    4.4880 c3        1 MOL      0.731270
     25 C11         1.4120   -2.6100    5.6140 c3        1 MOL     -0.304648
     26 C12         2.4870   -3.5060    6.2280 c3        1 MOL      0.191305
     27 N3          2.9710   -4.5990    5.3820 n4        1 MOL     -0.428949
     28 H8          3.3860    0.7350    3.3740 hn        1 MOL      0.202746
     29 H9          1.1130   -0.3850    1.8910 h1        1 MOL      0.035925
     30 H10         0.0650   -1.0990    3.8720 hc        1 MOL      0.023170
     31 H11         1.0770    0.0630    4.8310 hc        1 MOL      0.023170
     32 H12         2.9060   -1.2870    4.8980 hc        1 MOL     -0.140679
     33 H13         2.1280   -2.4640    3.6630 hc        1 MOL     -0.140679
     34 H14         0.5450   -3.1760    5.2960 hc        1 MOL      0.065882
     35 H15         1.2040   -1.9360    6.4470 hc        1 MOL      0.065882
     36 H16         2.1940   -3.9720    7.1660 hx        1 MOL      0.028395
     37 H17         3.2460   -2.8080    6.5860 hx        1 MOL      0.028395
     38 H18         3.2160   -4.2740    4.4520 hn        1 MOL      0.322506
     39 H19         3.7200   -5.1480    5.7770 hn        1 MOL      0.322506
     40 H20         2.2450   -5.2450    5.1170 hn        1 MOL      0.322506
     41 N4         -0.2040    1.8750    1.8840 n         1 MOL     -0.334512
     42 C13        -0.8220    0.9670    0.8870 c3        1 MOL     -0.075092
     43 C14        -1.3940   -0.3500    1.5070 c         1 MOL      0.586870
     44 O6         -0.8870   -1.4780    1.3030 o         1 MOL     -0.545970
     45 C15        -0.1180    0.7930   -0.4230 c3        1 MOL     -0.558104
     46 C16         0.2500    2.0180   -1.1780 c         1 MOL      0.847540
     47 O7         -0.0680    3.1180   -0.7780 o         1 MOL     -0.739422
     48 O8          0.8260    1.8890   -2.2810 o         1 MOL     -0.739422
     49 H21        -0.3900    2.8440    1.6730 hn        1 MOL      0.177129
     50 H22        -1.6400    1.6440    0.6790 h1        1 MOL      0.093228
     51 H23        -0.6870    0.2100   -1.1420 hc        1 MOL      0.217319
     52 H24         0.7930    0.2330   -0.2170 hc        1 MOL      0.217319
     53 N5         -2.4590   -0.3280    2.3160 n         1 MOL     -0.513638
     54 C17        -3.2860    0.7770    2.5590 c3        1 MOL      0.143728
     55 C18        -4.5960    0.5280    3.3260 c         1 MOL      0.572820
     56 O9         -4.6670   -0.4430    4.0550 o         1 MOL     -0.541440
     57 H25        -2.7360   -1.2680    2.5660 hn        1 MOL      0.325852
     58 H26        -3.5310    1.2610    1.6170 h1        1 MOL      0.013189
     59 H27        -2.6820    1.4960    3.1260 h1        1 MOL      0.013189
     60 N6         -5.6590    1.3480    3.1950 n         1 MOL     -0.489641
     61 C19        -5.8370    2.6710    2.5820 c3        1 MOL      0.072048
     62 C20        -6.5560    2.5060    1.2300 c         1 MOL      0.504758
     63 O10        -7.4200    1.6910    0.9410 o         1 MOL     -0.481932
     64 C21        -6.5660    3.7600    3.5320 c3        1 MOL     -0.179278
     65 C22        -7.7220    3.2330    4.4480 c         1 MOL      0.742177
     66 O11        -8.5360    4.0960    4.8100 o         1 MOL     -0.647188
     67 O12        -7.8820    2.0610    4.8220 o         1 MOL     -0.647188
     68 H28        -6.5480    1.1090    3.6110 hn        1 MOL      0.299481
     69 H29        -4.8480    3.0770    2.3640 h1        1 MOL     -0.000256
     70 H30        -6.9150    4.5840    2.9190 hc        1 MOL      0.024570
     71 H31        -5.7920    4.1150    4.2090 hc        1 MOL      0.024570
     72 N7         -6.1390    3.3350    0.2600 n         1 MOL     -0.286298
     73 C23        -6.7900    3.3180   -1.0800 c3        1 MOL     -0.360539
     74 C24        -6.3670    2.1790   -2.0240 c         1 MOL      0.571561
     75 O13        -6.9210    1.9890   -3.1320 o         1 MOL     -0.591605
     76 H32        -5.3310    3.9340    0.4100 hn        1 MOL      0.223023
     77 H33        -6.6340    4.2590   -1.6140 h1        1 MOL      0.169790
     78 H34        -7.8560    3.2210   -0.8630 h1        1 MOL      0.169790
     79 N8         -5.3060    1.5070   -1.7230 n         1 MOL     -0.311901
     80 C25        -4.8320    0.2850   -2.4300 c3        1 MOL     -0.061573
     81 C26        -4.8610   -0.8600   -1.4420 c         1 MOL      0.544517
     82 O14        -4.2570   -0.7810   -0.3440 o         1 MOL     -0.499887
     83 C27        -3.4050    0.4590   -3.0310 c3        1 MOL      0.587725
     84 C28        -3.2050    1.6930   -3.9080 c3        1 MOL     -0.362857
     85 O15        -3.0920   -0.6400   -3.8290 oh        1 MOL     -0.651055
     86 H35        -4.8290    1.8810   -0.9150 hn        1 MOL      0.177847
     87 H36        -5.4540   -0.0090   -3.2740 h1        1 MOL      0.118056
     88 H37        -2.7120    0.5750   -2.1930 h1        1 MOL     -0.065584
     89 H38        -2.2700   -0.9740   -3.4450 ho        1 MOL      0.381986
     90 H39        -2.3450    1.4750   -4.5470 hc        1 MOL      0.079934
     91 H40        -4.0820    1.9170   -4.5070 hc        1 MOL      0.079934
     92 H41        -3.0150    2.5190   -3.2290 hc        1 MOL      0.079934
     93 N9         -5.3880   -2.0620   -1.7620 n         1 MOL     -0.547196
     94 C29        -5.5400   -3.1390   -0.8660 c3        1 MOL      0.014678
     95 C30        -4.3450   -4.0250   -0.6470 c         1 MOL      0.467251
     96 O16        -4.4720   -4.9900    0.1140 o         1 MOL     -0.555203
     97 C31        -6.8300   -3.8240   -1.2380 c3        1 MOL      0.273297
     98 C32        -7.5990   -4.4490   -0.0930 c3        1 MOL     -0.107684
     99 C33        -6.5540   -4.8340   -2.4000 c3        1 MOL     -0.306896
    100 C34        -8.7940   -5.2700   -0.5140 c3        1 MOL     -0.023318
    101 H42        -5.9180   -2.0920   -2.6200 hn        1 MOL      0.286731
    102 H43        -5.6590   -2.7980    0.1630 h1        1 MOL      0.083529
    103 H44        -7.5400   -3.0760   -1.6030 hc        1 MOL     -0.001411
    104 H45        -8.0340   -3.6630    0.5370 hc        1 MOL      0.031796
    105 H46        -6.9200   -5.1330    0.4070 hc        1 MOL      0.031796
    106 H47        -5.8470   -4.3450   -3.0580 hc        1 MOL      0.066437
    107 H48        -6.0220   -5.7370   -2.1070 hc        1 MOL      0.066437
    108 H49        -7.5270   -5.0250   -2.8520 hc        1 MOL      0.066437
    109 H50        -8.4780   -6.1630   -1.0540 hc        1 MOL      0.006992
    110 H51        -9.5200   -5.5380    0.2520 hc        1 MOL      0.006992
    111 H52        -9.4480   -4.6830   -1.1570 hc        1 MOL      0.006992
    112 N10        -3.2640   -3.6350   -1.1720 n         1 MOL     -0.124993
    113 C35        -2.0490   -4.4430   -1.5770 c3        1 MOL     -0.306057
    114 C36        -0.8650   -3.4600   -1.7010 c         1 MOL      0.596749
    115 O17        -1.0690   -2.3650   -2.2430 o         1 MOL     -0.490346
    116 C37        -2.3110   -5.2790   -2.8820 c3        1 MOL      0.364332
    117 C38        -1.2250   -6.1620   -3.4030 c3        1 MOL     -0.286783
    118 O18        -2.7510   -4.4670   -3.9330 oh        1 MOL     -0.619710
    119 H53        -3.2110   -2.6800   -1.5120 hn        1 MOL      0.136624
    120 H54        -1.8720   -5.1940   -0.8050 h1        1 MOL      0.113241
    121 H55        -3.1450   -5.9410   -2.6620 h1        1 MOL      0.073200
    122 H56        -2.0070   -3.9490   -4.2500 ho        1 MOL      0.413802
    123 H57        -0.8650   -6.8410   -2.6170 hc        1 MOL      0.068465
    124 H58        -1.6080   -6.7520   -4.2360 hc        1 MOL      0.068465
    125 H59        -0.3780   -5.6480   -3.8610 hc        1 MOL      0.068465
    126 N11         0.3260   -3.8740   -1.3430 n         1 MOL     -0.377929
    127 C39         1.5130   -3.0130   -1.2560 c3        1 MOL      0.015396
    128 C40         2.0440   -2.3180   -2.5120 c         1 MOL      0.491229
    129 O19         1.6750   -2.6340   -3.5760 o         1 MOL     -0.518548
    130 C41         2.6290   -3.7720   -0.5300 c3        1 MOL      0.352558
    131 C42         3.0760   -5.0710   -1.2650 c3        1 MOL     -0.396345
    132 O20         2.2430   -4.2530    0.6740 oh        1 MOL     -0.694222
    133 H60         0.4750   -4.8110   -1.0030 hn        1 MOL      0.309143
    134 H61         1.2180   -2.2880   -0.4970 h1        1 MOL      0.050401
    135 H62         3.5480   -3.2330   -0.3320 h1        1 MOL      0.083957
    136 H63         2.9740   -4.1080    1.2840 ho        1 MOL      0.482602
    137 H64         3.2860   -4.9410   -2.3300 hc        1 MOL      0.072046
    138 H65         3.9840   -5.3790   -0.7430 hc        1 MOL      0.072046
    139 H66         2.3070   -5.8510   -1.2800 hc        1 MOL      0.072046
    140 N12         2.9860   -1.3900   -2.2330 n         1 MOL     -0.071156
    141 C43         3.6810   -0.5440   -3.2600 c3        1 MOL     -0.074828
    142 C44         4.1250    0.8620   -2.7840 c         1 MOL      0.579462
    143 O21         4.6350    1.6450   -3.6210 o         1 MOL     -0.633617
    144 C45         4.9430   -1.3370   -3.6570 c3        1 MOL     -0.261917
    145 C46         5.9650   -1.6100   -2.5480 c3        1 MOL      0.192250
    146 C47         7.0840   -2.6720   -2.8520 c3        1 MOL     -0.214115
    147 C48         6.4340   -4.1300   -2.7840 c3        1 MOL      0.171389
    148 N13         7.4640   -5.1230   -2.9520 n4        1 MOL     -0.449723
    149 H67         2.9980   -1.1600   -1.2580 hn        1 MOL     -0.283659
    150 H68         3.0200   -0.3240   -4.0980 h1        1 MOL      0.138968
    151 H69         5.4900   -0.7830   -4.4120 hc        1 MOL      0.087758
    152 H70         4.6080   -2.1900   -4.2490 hc        1 MOL      0.087758
    153 H71         5.3530   -2.0870   -1.7860 hc        1 MOL     -0.009973
    154 H72         6.4760   -0.7150   -2.2010 hc        1 MOL     -0.009973
    155 H73         7.7870   -2.6420   -2.0190 hc        1 MOL      0.075003
    156 H74         7.4240   -2.5220   -3.8780 hc        1 MOL      0.075003
    157 H75         5.6880   -4.1850   -3.5790 hx        1 MOL      0.041301
    158 H76         6.0000   -4.1990   -1.7870 hx        1 MOL      0.041301
    159 H77         8.3300   -4.9480   -2.4470 hn        1 MOL      0.317846
    160 H78         7.2070   -6.0560   -2.6810 hn        1 MOL      0.317846
    161 H79         7.6810   -5.1650   -3.9400 hn        1 MOL      0.317846
    162 N14         4.0230    1.2190   -1.5300 n         1 MOL     -0.046536
    163 C49         4.4310    2.4980   -1.0120 c3        1 MOL     -0.176130
    164 C50         5.9330    2.5450   -0.9220 c         1 MOL      0.584691
    165 O22         6.5690    1.6380   -0.3360 o         1 MOL     -0.549392
    166 C51         3.8160    2.8060    0.3420 c3        1 MOL      0.174764
    167 C52         4.1040    4.2620    0.7220 c3        1 MOL     -0.134550
    168 C53         3.6950    5.3220   -0.3110 c         1 MOL      0.532839
    169 O23         2.5120    5.5080   -0.6690 o         1 MOL     -0.705373
    170 O24         4.5930    6.1090   -0.6550 o         1 MOL     -0.705373
    171 H80         3.8390    0.5000   -0.8360 hn        1 MOL      0.124150
    172 H81         4.1550    3.2650   -1.7430 h1        1 MOL      0.096373
    173 H82         4.3110    2.2190    1.1040 hc        1 MOL     -0.075658
    174 H83         2.7460    2.6010    0.3540 hc        1 MOL     -0.075658
    175 H84         5.1350    4.3610    1.0560 hc        1 MOL      0.084913
    176 H85         3.5240    4.5050    1.6080 hc        1 MOL      0.084913
    177 N15         6.5030    3.6880   -1.4610 n         1 MOL     -0.486301
    178 C54         7.9470    3.8790   -1.4030 c3        1 MOL      0.088458
    179 H86         8.4320    2.9220   -1.2130 h1        1 MOL      0.025655
    180 H87         8.2990    4.2820   -2.3520 h1        1 MOL      0.025655
    181 H88         8.1900    4.5740   -0.6000 h1        1 MOL      0.025655
    182 H89         5.9250    4.4400   -1.8150 hn        1 MOL      0.417398
    183 Ca1         0.0880    5.7710   -1.1500 Ca        1 MOL      1.693689
    184 O25        -1.9240    4.8700   -2.8400 oh        1 MOL     -0.848939
    185 H90        -2.8440    5.1030   -2.9950 ho        1 MOL      0.415210
    186 H91        -1.6220    4.5360   -3.6850 ho        1 MOL      0.415210
    187 O26        -0.6970    7.8810   -2.5430 oh        1 MOL     -0.848939
    188 H92        -0.3060    8.7060   -2.8380 ho        1 MOL      0.415210
    189 H93        -1.4590    7.7650   -3.1060 ho        1 MOL      0.415210
    190 O27         2.4050    7.2080   -2.7560 oh        1 MOL     -0.848939
    191 H94         2.1860    8.0290   -2.3170 ho        1 MOL      0.415210
    192 H95         2.7650    6.6580   -2.0580 ho        1 MOL      0.415210
    193 O28         0.8580    4.3230   -3.2950 oh        1 MOL     -0.848939
    194 H96         0.8910    3.3870   -3.0920 ho        1 MOL      0.415210
    195 H97         1.4560    4.4260   -4.0420 ho        1 MOL      0.415210
@<TRIPOS>BOND
     1    1    2 1   
     2    1    4 1   
     3    1    5 1   
     4    1    6 1   
     5    2    3 2   
     6    2    7 1   
     7    7    8 1   
     8    7   15 1   
     9    8    9 1   
    10    8   11 1   
    11    8   16 1   
    12    9   10 2   
    13    9   19 1   
    14   11   12 1   
    15   11   17 1   
    16   11   18 1   
    17   12   13 1   
    18   12   14 1   
    19   19   20 1   
    20   19   28 1   
    21   20   21 1   
    22   20   23 1   
    23   20   29 1   
    24   21   22 2   
    25   21   41 1   
    26   23   24 1   
    27   23   30 1   
    28   23   31 1   
    29   24   25 1   
    30   24   32 1   
    31   24   33 1   
    32   25   26 1   
    33   25   34 1   
    34   25   35 1   
    35   26   27 1   
    36   26   36 1   
    37   26   37 1   
    38   27   38 1   
    39   27   39 1   
    40   27   40 1   
    41   41   42 1   
    42   41   49 1   
    43   42   43 1   
    44   42   45 1   
    45   42   50 1   
    46   43   44 2   
    47   43   53 1   
    48   45   46 1   
    49   45   51 1   
    50   45   52 1   
    51   46   47 1   
    52   46   48 1   
    53   53   54 1   
    54   53   57 1   
    55   54   55 1   
    56   54   58 1   
    57   54   59 1   
    58   55   56 2   
    59   55   60 1   
    60   60   61 1   
    61   60   68 1   
    62   61   62 1   
    63   61   64 1   
    64   61   69 1   
    65   62   63 2   
    66   62   72 1   
    67   64   65 1   
    68   64   70 1   
    69   64   71 1   
    70   65   66 1   
    71   65   67 1   
    72   72   73 1   
    73   72   76 1   
    74   73   74 1   
    75   73   77 1   
    76   73   78 1   
    77   74   75 2   
    78   74   79 1   
    79   79   80 1   
    80   79   86 1   
    81   80   81 1   
    82   80   83 1   
    83   80   87 1   
    84   81   82 2   
    85   81   93 1   
    86   83   84 1   
    87   83   85 1   
    88   83   88 1   
    89   84   90 1   
    90   84   91 1   
    91   84   92 1   
    92   85   89 1   
    93   93   94 1   
    94   93  101 1   
    95   94   95 1   
    96   94   97 1   
    97   94  102 1   
    98   95   96 2   
    99   95  112 1   
   100   97   98 1   
   101   97   99 1   
   102   97  103 1   
   103   98  100 1   
   104   98  104 1   
   105   98  105 1   
   106   99  106 1   
   107   99  107 1   
   108   99  108 1   
   109  100  109 1   
   110  100  110 1   
   111  100  111 1   
   112  112  113 1   
   113  112  119 1   
   114  113  114 1   
   115  113  116 1   
   116  113  120 1   
   117  114  115 2   
   118  114  126 1   
   119  116  117 1   
   120  116  118 1   
   121  116  121 1   
   122  117  123 1   
   123  117  124 1   
   124  117  125 1   
   125  118  122 1   
   126  126  127 1   
   127  126  133 1   
   128  127  128 1   
   129  127  130 1   
   130  127  134 1   
   131  128  129 2   
   132  128  140 1   
   133  130  131 1   
   134  130  132 1   
   135  130  135 1   
   136  131  137 1   
   137  131  138 1   
   138  131  139 1   
   139  132  136 1   
   140  140  141 1   
   141  140  149 1   
   142  141  142 1   
   143  141  144 1   
   144  141  150 1   
   145  142  143 2   
   146  142  162 1   
   147  144  145 1   
   148  144  151 1   
   149  144  152 1   
   150  145  146 1   
   151  145  153 1   
   152  145  154 1   
   153  146  147 1   
   154  146  155 1   
   155  146  156 1   
   156  147  148 1   
   157  147  157 1   
   158  147  158 1   
   159  148  159 1   
   160  148  160 1   
   161  148  161 1   
   162  162  163 1   
   163  162  171 1   
   164  163  164 1   
   165  163  166 1   
   166  163  172 1   
   167  164  165 2   
   168  164  177 1   
   169  166  167 1   
   170  166  173 1   
   171  166  174 1   
   172  167  168 1   
   173  167  175 1   
   174  167  176 1   
   175  168  169 1   
   176  168  170 1   
   177  177  178 1   
   178  177  182 1   
   179  178  179 1   
   180  178  180 1   
   181  178  181 1   
   182  184  185 1   
   183  184  186 1   
   184  187  188 1   
   185  187  189 1   
   186  190  191 1   
   187  190  192 1   
   188  193  194 1   
   189  193  195 1   
@<TRIPOS>SUBSTRUCTURE
     1 MOL         1 TEMP              0 ****  ****    0 ROOT
