@<TRIPOS>MOLECULE
MOL
  189   185     1     0     0
SMALL
resp


@<TRIPOS>ATOM
      1 C1          4.4220    4.0370   -3.7490 c3        1 MOL     -0.355409
      2 C2          5.1600    3.2320   -2.5480 c         1 MOL      0.685482
      3 O1          4.5420    2.9640   -1.5180 o         1 MOL     -0.609911
      4 H1          3.7510    4.7840   -3.3250 hc        1 MOL      0.096882
      5 H2          5.1700    4.5300   -4.3690 hc        1 MOL      0.096882
      6 H3          3.8500    3.3370   -4.3570 hc        1 MOL      0.096882
      7 N1          6.3670    2.7400   -2.7800 n         1 MOL     -0.614497
      8 C3          7.0270    1.6750   -2.0330 c3        1 MOL      0.434229
      9 C4          6.1110    0.4870   -1.6970 c         1 MOL      0.432982
     10 O2          5.6400    0.3430   -0.5910 o         1 MOL     -0.603845
     11 C5          7.8300    2.1210   -0.8720 c3        1 MOL     -0.498190
     12 C6          7.1640    3.1380    0.0890 c         1 MOL      0.798159
     13 O3          6.3780    2.7340    0.9740 o         1 MOL     -0.712619
     14 O4          7.2430    4.3850    0.0330 o         1 MOL     -0.712619
     15 H4          6.5940    2.7710   -3.7650 hn        1 MOL      0.285802
     16 H5          7.7680    1.2000   -2.6670 h1        1 MOL     -0.007341
     17 H6          8.7320    2.5870   -1.2750 hc        1 MOL      0.099012
     18 H7          8.2220    1.2300   -0.3790 hc        1 MOL      0.099012
     19 N2          5.8070   -0.2180   -2.7730 n         1 MOL     -0.555906
     20 C7          4.9270   -1.3840   -3.0130 c3        1 MOL      0.076820
     21 C8          5.3340   -2.6110   -2.2030 c         1 MOL      0.403800
     22 O5          5.4360   -3.6430   -2.8510 o         1 MOL     -0.573420
     23 C9          3.4770   -1.0560   -2.7760 c3        1 MOL      0.008690
     24 C10         2.4240   -2.1080   -3.2380 c3        1 MOL     -0.067923
     25 C11         3.0960    0.2950   -3.3830 c3        1 MOL     -0.190911
     26 C12         2.3030   -2.2730   -4.7530 c3        1 MOL     -0.243040
     27 H8          6.2200    0.1570   -3.6180 hn        1 MOL      0.267634
     28 H9          5.0390   -1.4880   -4.0970 h1        1 MOL      0.088499
     29 H10         3.4160   -1.0040   -1.6860 hc        1 MOL      0.069564
     30 H11         1.4210   -1.8140   -2.9380 hc        1 MOL      0.096773
     31 H12         2.7420   -3.0760   -2.8270 hc        1 MOL      0.096773
     32 H13         3.5440    1.1280   -2.8300 hc        1 MOL      0.054601
     33 H14         3.3140    0.4710   -4.4380 hc        1 MOL      0.054601
     34 H15         2.0240    0.4370   -3.2540 hc        1 MOL      0.054601
     35 H16         1.8920   -1.3240   -5.0920 hc        1 MOL      0.041574
     36 H17         3.2990   -2.4430   -5.1820 hc        1 MOL      0.041574
     37 H18         1.5190   -2.9940   -5.0000 hc        1 MOL      0.041574
     38 N3          5.6160   -2.5340   -0.9400 n         1 MOL     -0.103547
     39 C13         6.2980   -3.6280   -0.2260 c3        1 MOL     -0.061277
     40 C14         5.4700   -4.8220    0.3030 c         1 MOL      0.612614
     41 O6          6.0110   -5.9220    0.4010 o         1 MOL     -0.528535
     42 C15         7.1470   -2.9730    0.8860 c3        1 MOL     -0.340223
     43 C16         8.2330   -3.9610    1.4010 c         1 MOL      0.702965
     44 O7          9.2470   -4.1750    0.6910 o         1 MOL     -0.687830
     45 O8          8.1250   -4.5250    2.5490 o         1 MOL     -0.687830
     46 H19         5.7370   -1.6030   -0.5780 hn        1 MOL      0.292390
     47 H20         6.9360   -4.1580   -0.9190 h1        1 MOL      0.081970
     48 H21         6.5540   -2.7000    1.7580 hc        1 MOL      0.109828
     49 H22         7.6430   -2.0340    0.6470 hc        1 MOL      0.109828
     50 N4          4.1710   -4.7480    0.6940 n         1 MOL     -0.625265
     51 C17         3.5280   -3.5250    1.1860 c3        1 MOL      0.223909
     52 C18         2.1790   -3.9840    1.7780 c         1 MOL      0.675320
     53 O9          1.6440   -5.0130    1.4170 o         1 MOL     -0.575231
     54 H23         3.7180   -5.6180    0.9180 hn        1 MOL      0.307911
     55 H24         3.3870   -2.7670    0.4230 h1        1 MOL     -0.018368
     56 H25         4.1250   -3.0550    1.9620 h1        1 MOL     -0.018368
     57 N5          1.6860   -3.2610    2.8460 n         1 MOL     -0.806397
     58 C19         2.0910   -1.8820    3.2120 c3        1 MOL      0.686879
     59 C20         2.1940   -0.8330    2.0240 c         1 MOL      0.088357
     60 O10         3.2630   -0.2540    1.8380 o         1 MOL     -0.539715
     61 C21         3.2990   -1.9200    4.1860 c3        1 MOL     -0.576993
     62 C22         3.4040   -0.6510    5.0670 c         1 MOL      0.747276
     63 O11         4.3370   -0.4510    5.8760 o         1 MOL     -0.700268
     64 O12         2.5260    0.2360    4.9570 o         1 MOL     -0.700268
     65 H26         0.9660   -3.7670    3.3400 hn        1 MOL      0.328662
     66 H27         1.2650   -1.4800    3.7880 h1        1 MOL     -0.008993
     67 H28         4.1800   -1.9340    3.5550 hc        1 MOL      0.138547
     68 H29         3.2810   -2.7960    4.8360 hc        1 MOL      0.138547
     69 N6          1.2640   -0.7430    1.1210 n         1 MOL     -0.048834
     70 C23        -0.1480   -1.2290    1.1630 c3        1 MOL     -0.154233
     71 C24        -0.4610   -2.3710    0.1600 c         1 MOL      0.509224
     72 O13         0.3760   -2.7070   -0.7000 o         1 MOL     -0.540692
     73 H30         1.4380   -0.1490    0.3290 hn        1 MOL      0.189252
     74 H31        -0.7200   -0.3570    0.8360 h1        1 MOL      0.061764
     75 H32        -0.4550   -1.4980    2.1700 h1        1 MOL      0.061764
     76 N7         -1.6490   -3.0110    0.3350 n         1 MOL     -0.480616
     77 C25        -1.9800   -4.1700   -0.5570 c3        1 MOL      0.065184
     78 C26        -2.3920   -3.7120   -1.9580 c         1 MOL      0.383715
     79 O14        -2.6040   -4.5420   -2.8610 o         1 MOL     -0.507939
     80 C27        -3.0950   -5.0420    0.0920 c3        1 MOL      0.053034
     81 C28        -4.3130   -4.2080    0.5420 c3        1 MOL     -0.019609
     82 C29        -5.5510   -4.9310    0.9780 c         1 MOL      0.567910
     83 N8         -6.3250   -4.5800    1.9790 n         1 MOL     -0.771796
     84 O15        -6.0470   -5.8070    0.3170 o         1 MOL     -0.528049
     85 H33        -2.2710   -2.5290    0.9710 hn        1 MOL      0.304194
     86 H34        -1.1010   -4.7850   -0.6940 h1        1 MOL      0.146110
     87 H35        -2.7180   -5.4870    1.0030 hc        1 MOL      0.001193
     88 H36        -3.3510   -5.7730   -0.6730 hc        1 MOL      0.001193
     89 H37        -4.5750   -3.5520   -0.2810 hc        1 MOL     -0.003487
     90 H38        -3.9670   -3.5340    1.3300 hc        1 MOL     -0.003487
     91 H39        -5.9520   -3.9690    2.6940 hn        1 MOL      0.361280
     92 H40        -7.2000   -5.0510    2.1460 hn        1 MOL      0.361280
     93 N9         -2.7760   -2.4440   -2.1590 n         1 MOL     -0.097070
     94 C30        -3.3820   -2.0400   -3.5110 c3        1 MOL     -0.324947
     95 C31        -4.6500   -1.1780   -3.4040 c         1 MOL      0.610889
     96 O16        -5.2150   -0.8290   -4.4360 o         1 MOL     -0.553184
     97 C32        -2.3730   -1.1980   -4.3630 c3        1 MOL      0.257193
     98 C33        -1.2690   -2.1340   -4.9720 c3        1 MOL     -0.310883
     99 C34        -1.8080    0.0030   -3.6110 c3        1 MOL     -0.310883
    100 H41        -2.8310   -1.7540   -1.4200 hn        1 MOL      0.140272
    101 H42        -3.6730   -2.9110   -4.0930 h1        1 MOL      0.185583
    102 H43        -2.9700   -0.7990   -5.1840 hc        1 MOL      0.002269
    103 H44        -0.9610   -2.9540   -4.3310 hc        1 MOL      0.083283
    104 H45        -1.6740   -2.5900   -5.8770 hc        1 MOL      0.083283
    105 H46        -0.4120   -1.4850   -5.1790 hc        1 MOL      0.083283
    106 H47        -1.1600    0.6050   -4.2560 hc        1 MOL      0.083283
    107 H48        -2.6480    0.6090   -3.2860 hc        1 MOL      0.083283
    108 H49        -1.2950   -0.2900   -2.7010 hc        1 MOL      0.083283
    109 N10        -5.2220   -0.8780   -2.2250 n         1 MOL     -0.347945
    110 C35        -6.4600   -0.0950   -2.0000 c3        1 MOL     -0.037978
    111 C36        -6.3280    1.2080   -1.1980 c         1 MOL      0.599410
    112 O17        -7.0210    2.2100   -1.4620 o         1 MOL     -0.555837
    113 C37        -7.3740   -1.0350   -1.2720 c3        1 MOL     -0.122677
    114 C38        -7.7180   -2.3560   -1.9070 c         1 MOL      0.539089
    115 N11        -8.2970   -2.3420   -3.0840 n         1 MOL     -0.713694
    116 O18        -7.4660   -3.3560   -1.3490 o         1 MOL     -0.435228
    117 H50        -4.7140   -1.2000   -1.4140 hn        1 MOL      0.187088
    118 H51        -6.9010    0.1300   -2.9780 h1        1 MOL      0.075638
    119 H52        -8.3350   -0.5290   -1.1240 hc        1 MOL      0.056770
    120 H53        -6.8920   -1.2220   -0.3130 hc        1 MOL      0.056770
    121 H54        -8.4440   -1.4080   -3.4630 hn        1 MOL      0.336597
    122 H55        -9.0240   -3.0110   -3.2670 hn        1 MOL      0.336597
    123 N12        -5.6580    1.1260   -0.0420 n         1 MOL     -0.595214
    124 C39        -5.6150    2.0480    1.1160 c3        1 MOL      0.394227
    125 C40        -4.2090    2.7290    1.0750 c         1 MOL      0.481976
    126 O19        -3.1830    2.1720    0.6290 o         1 MOL     -0.533825
    127 C41        -5.8820    1.3480    2.4810 c3        1 MOL     -0.118153
    128 C42        -7.1480    0.5060    2.4800 ca        1 MOL      0.055700
    129 C43        -8.3760    1.0680    2.8480 ca        1 MOL     -0.112752
    130 C44        -7.0140   -0.8480    2.2620 ca        1 MOL     -0.112752
    131 C45        -9.4800    0.2340    3.0700 ca        1 MOL     -0.359488
    132 C46        -8.0870   -1.6520    2.5320 ca        1 MOL     -0.359488
    133 C47        -9.3550   -1.0940    2.8060 ca        1 MOL      0.430641
    134 O20       -10.4430   -1.9730    2.8550 oh        1 MOL     -0.538090
    135 H56        -5.1250    0.2750    0.0870 hn        1 MOL      0.288337
    136 H57        -6.3920    2.8000    1.0140 h1        1 MOL     -0.036891
    137 H58        -5.9170    2.1040    3.2660 hc        1 MOL      0.044701
    138 H59        -5.0650    0.6330    2.6180 hc        1 MOL      0.044701
    139 H60        -8.4510    2.1080    3.1350 ha        1 MOL      0.103611
    140 H61        -6.0500   -1.2900    2.0590 ha        1 MOL      0.103611
    141 H62       -10.3430    0.6740    3.5480 ha        1 MOL      0.150912
    142 H63        -8.0900   -2.7190    2.3860 ha        1 MOL      0.150912
    143 H64       -11.2440   -1.5650    3.1780 ho        1 MOL      0.366481
    144 N13        -4.1750    3.9680    1.6440 n         1 MOL     -0.619277
    145 C48        -3.0490    4.8150    1.8560 c3        1 MOL      0.267941
    146 C49        -2.0710    5.2160    0.6880 c         1 MOL      0.211078
    147 O21        -1.3610    6.2470    0.8060 o         1 MOL     -0.474387
    148 C50        -2.2570    4.4160    3.1230 c3        1 MOL     -0.075709
    149 C51        -1.2210    3.3120    3.0360 c3        1 MOL     -0.271478
    150 C52        -0.6030    3.1280    4.4080 c         1 MOL      0.704619
    151 O22         0.4650    3.7180    4.6310 o         1 MOL     -0.702719
    152 O23        -1.0340    2.2570    5.1920 o         1 MOL     -0.702719
    153 H65        -5.0780    4.2870    1.9670 hn        1 MOL      0.315261
    154 H66        -3.4790    5.8020    2.0220 h1        1 MOL      0.017097
    155 H67        -3.0480    4.0200    3.7650 hc        1 MOL      0.025048
    156 H68        -1.7990    5.3360    3.4820 hc        1 MOL      0.025048
    157 H69        -0.4200    3.4910    2.3130 hc        1 MOL      0.097616
    158 H70        -1.6790    2.3800    2.7170 hc        1 MOL      0.097616
    159 N14        -2.0560    4.5280   -0.4320 n         1 MOL     -0.195464
    160 C53        -1.0520    4.5940   -1.4800 c3        1 MOL     -0.012845
    161 C54        -1.5050    5.5350   -2.6400 c         1 MOL      0.426914
    162 O24        -0.5940    6.0670   -3.2820 o         1 MOL     -0.527877
    163 C55        -0.6700    3.2150   -1.9910 c3        1 MOL      0.090814
    164 C56        -0.2880    2.1330   -0.9570 c3        1 MOL      0.519251
    165 C57         1.1480    2.4460   -0.4460 c         1 MOL      0.567643
    166 O25         1.5040    3.4750    0.1490 o         1 MOL     -0.683378
    167 O26         2.0110    1.5580   -0.5120 o         1 MOL     -0.683378
    168 H71        -2.8520    3.9260   -0.5380 hn        1 MOL      0.233788
    169 H72        -0.1560    5.0750   -1.0740 h1        1 MOL      0.135858
    170 H73         0.0990    3.2470   -2.7690 hc        1 MOL     -0.074937
    171 H74        -1.5790    2.8690   -2.4680 hc        1 MOL     -0.074937
    172 H75        -0.3370    1.1550   -1.4370 hc        1 MOL     -0.181181
    173 H76        -0.9190    2.1300   -0.0620 hc        1 MOL     -0.181181
    174 N15        -2.7890    5.7900   -2.9120 n         1 MOL     -0.263238
    175 C58        -3.1950    6.8570   -3.8220 c3        1 MOL     -0.191902
    176 H77        -3.8880    7.5260   -3.3120 h1        1 MOL      0.091353
    177 H78        -2.3160    7.4180   -4.1390 h1        1 MOL      0.091353
    178 H79        -3.6850    6.4240   -4.6950 h1        1 MOL      0.091353
    179 H80        -3.4830    5.4000   -2.2910 hn        1 MOL      0.209885
    180 Ca1         3.9400    2.2280    0.9320 Ca        1 MOL      1.813642
    181 O27         4.0440    4.8640    1.5590 oh        1 MOL     -0.876708
    182 H81         3.1700    5.2660    1.5420 ho        1 MOL      0.423306
    183 H82         4.6260    5.5380    1.2150 ho        1 MOL      0.423306
    184 O28         2.3820    2.5030    2.9660 oh        1 MOL     -0.876708
    185 H83         1.7670    3.1620    3.2640 ho        1 MOL      0.423306
    186 H84         2.2360    1.7530    3.5520 ho        1 MOL      0.423306
    187 O29         5.0270    1.4310    3.3720 oh        1 MOL     -0.876708
    188 H85         5.8710    1.1520    3.7080 ho        1 MOL      0.423306
    189 H86         4.3910    1.1360    4.0190 ho        1 MOL      0.423306
@<TRIPOS>BOND
     1    1    2 1   
     2    1    4 1   
     3    1    5 1   
     4    1    6 1   
     5    2    3 2   
     6    2    7 1   
     7    7    8 1   
     8    7   15 1   
     9    8    9 1   
    10    8   11 1   
    11    8   16 1   
    12    9   10 2   
    13    9   19 1   
    14   11   12 1   
    15   11   17 1   
    16   11   18 1   
    17   12   13 1   
    18   12   14 1   
    19   19   20 1   
    20   19   27 1   
    21   20   21 1   
    22   20   23 1   
    23   20   28 1   
    24   21   22 2   
    25   21   38 1   
    26   23   24 1   
    27   23   25 1   
    28   23   29 1   
    29   24   26 1   
    30   24   30 1   
    31   24   31 1   
    32   25   32 1   
    33   25   33 1   
    34   25   34 1   
    35   26   35 1   
    36   26   36 1   
    37   26   37 1   
    38   38   39 1   
    39   38   46 1   
    40   39   40 1   
    41   39   42 1   
    42   39   47 1   
    43   40   41 2   
    44   40   50 1   
    45   42   43 1   
    46   42   48 1   
    47   42   49 1   
    48   43   44 1   
    49   43   45 1   
    50   50   51 1   
    51   50   54 1   
    52   51   52 1   
    53   51   55 1   
    54   51   56 1   
    55   52   53 2   
    56   52   57 1   
    57   57   58 1   
    58   57   65 1   
    59   58   59 1   
    60   58   61 1   
    61   58   66 1   
    62   59   60 2   
    63   59   69 1   
    64   61   62 1   
    65   61   67 1   
    66   61   68 1   
    67   62   63 1   
    68   62   64 1   
    69   69   70 1   
    70   69   73 1   
    71   70   71 1   
    72   70   74 1   
    73   70   75 1   
    74   71   72 2   
    75   71   76 1   
    76   76   77 1   
    77   76   85 1   
    78   77   78 1   
    79   77   80 1   
    80   77   86 1   
    81   78   79 2   
    82   78   93 1   
    83   80   81 1   
    84   80   87 1   
    85   80   88 1   
    86   81   82 1   
    87   81   89 1   
    88   81   90 1   
    89   82   83 1   
    90   82   84 2   
    91   83   91 1   
    92   83   92 1   
    93   93   94 1   
    94   93  100 1   
    95   94   95 1   
    96   94   97 1   
    97   94  101 1   
    98   95   96 2   
    99   95  109 1   
   100   97   98 1   
   101   97   99 1   
   102   97  102 1   
   103   98  103 1   
   104   98  104 1   
   105   98  105 1   
   106   99  106 1   
   107   99  107 1   
   108   99  108 1   
   109  109  110 1   
   110  109  117 1   
   111  110  111 1   
   112  110  113 1   
   113  110  118 1   
   114  111  112 2   
   115  111  123 1   
   116  113  114 1   
   117  113  119 1   
   118  113  120 1   
   119  114  115 1   
   120  114  116 2   
   121  115  121 1   
   122  115  122 1   
   123  123  124 1   
   124  123  135 1   
   125  124  125 1   
   126  124  127 1   
   127  124  136 1   
   128  125  126 2   
   129  125  144 1   
   130  127  128 1   
   131  127  137 1   
   132  127  138 1   
   133  128  129 ar  
   134  128  130 ar  
   135  129  131 ar  
   136  129  139 1   
   137  130  132 ar  
   138  130  140 1   
   139  131  133 ar  
   140  131  141 1   
   141  132  133 ar  
   142  132  142 1   
   143  133  134 1   
   144  134  143 1   
   145  144  145 1   
   146  144  153 1   
   147  145  146 1   
   148  145  148 1   
   149  145  154 1   
   150  146  147 2   
   151  146  159 1   
   152  148  149 1   
   153  148  155 1   
   154  148  156 1   
   155  149  150 1   
   156  149  157 1   
   157  149  158 1   
   158  150  151 1   
   159  150  152 1   
   160  159  160 1   
   161  159  168 1   
   162  160  161 1   
   163  160  163 1   
   164  160  169 1   
   165  161  162 2   
   166  161  174 1   
   167  163  164 1   
   168  163  170 1   
   169  163  171 1   
   170  164  165 1   
   171  164  172 1   
   172  164  173 1   
   173  165  166 1   
   174  165  167 1   
   175  174  175 1   
   176  174  179 1   
   177  175  176 1   
   178  175  177 1   
   179  175  178 1   
   180  181  182 1   
   181  181  183 1   
   182  184  185 1   
   183  184  186 1   
   184  187  188 1   
   185  187  189 1   
@<TRIPOS>SUBSTRUCTURE
     1 MOL         1 TEMP              0 ****  ****    0 ROOT
