@<TRIPOS>MOLECULE
MOL
  181   177     1     0     0
SMALL
resp


@<TRIPOS>ATOM
      1 C1          9.6000    7.1790   -1.8350 c3        1 MOL     -0.290322
      2 C2          8.7780    5.9550   -1.2730 c         1 MOL      0.696654
      3 O1          7.6310    6.2180   -0.9190 o         1 MOL     -0.588306
      4 H1          9.5670    7.1680   -2.9250 hc        1 MOL      0.066643
      5 H2          9.1640    8.1090   -1.4680 hc        1 MOL      0.066643
      6 H3         10.6350    7.1050   -1.5030 hc        1 MOL      0.066643
      7 N1          9.2370    4.7310   -1.2180 n         1 MOL     -0.683000
      8 C3         10.4820    4.0240   -1.6060 c3        1 MOL      0.356666
      9 C4         11.3250    3.4140   -0.3840 c         1 MOL      0.344194
     10 O2         12.4290    2.8730   -0.5560 o         1 MOL     -0.521423
     11 C5         10.2240    2.9590   -2.6040 c3        1 MOL     -0.441443
     12 C6          9.1280    1.9380   -2.2230 c         1 MOL      0.916100
     13 O3          8.4700    2.0650   -1.1550 o         1 MOL     -0.815369
     14 O4          8.9020    0.9630   -3.0140 o         1 MOL     -0.815369
     15 H4          8.5810    4.0780   -0.8280 hn        1 MOL      0.399452
     16 H5         11.2150    4.6750   -2.0860 h1        1 MOL      0.019225
     17 H6         11.1360    2.3820   -2.7000 hc        1 MOL      0.111906
     18 H7          9.9720    3.4700   -3.5370 hc        1 MOL      0.111906
     19 N2         10.6900    3.4850    0.8080 n         1 MOL     -0.381855
     20 C7         11.1880    2.8930    2.0650 c3        1 MOL      0.283159
     21 C8         10.5920    1.4820    2.5270 c         1 MOL      0.229401
     22 O5         10.9570    1.0050    3.5690 o         1 MOL     -0.491654
     23 C9         10.9840    4.0070    3.1240 c3        1 MOL     -0.350496
     24 H8          9.7370    3.8230    0.8260 hn        1 MOL      0.252029
     25 H9         12.2620    2.7930    1.9100 h1        1 MOL      0.044941
     26 H10         9.9380    4.0340    3.4270 hc        1 MOL      0.097478
     27 H11        11.4650    3.6600    4.0300 hc        1 MOL      0.097478
     28 H12        11.2860    4.9940    2.7670 hc        1 MOL      0.097478
     29 N3          9.5950    0.9360    1.8470 n         1 MOL     -0.094846
     30 C10         8.8520   -0.3310    2.2200 c3        1 MOL      0.051182
     31 C11         8.5900   -1.2930    1.0590 c         1 MOL      0.484045
     32 O6          8.6520   -0.9070   -0.0980 o         1 MOL     -0.593722
     33 C12         7.4490    0.0750    2.7220 c3        1 MOL     -0.007108
     34 C13         6.6450    1.0190    1.8230 c         1 MOL      0.639264
     35 O7          6.7460    2.2520    2.0350 o         1 MOL     -0.677975
     36 O8          6.0490    0.5450    0.7790 o         1 MOL     -0.677975
     37 H13         9.2570    1.3100    0.9740 hn        1 MOL      0.216107
     38 H14         9.4020   -0.9040    2.9680 h1        1 MOL      0.023033
     39 H15         7.4890    0.5450    3.7040 hc        1 MOL     -0.011599
     40 H16         6.9020   -0.8660    2.7600 hc        1 MOL     -0.011599
     41 N4          8.3700   -2.5620    1.3240 n         1 MOL     -0.393517
     42 C14         8.1960   -3.5750    0.2720 c3        1 MOL     -0.099295
     43 C15         6.9220   -3.4400   -0.4820 c         1 MOL      0.697775
     44 O9          6.2150   -2.4630   -0.3340 o         1 MOL     -0.481410
     45 H17         8.2690   -2.9410    2.2500 hn        1 MOL      0.297794
     46 H18         8.3490   -4.5960    0.6230 h1        1 MOL      0.088757
     47 H19         8.9520   -3.4140   -0.4870 h1        1 MOL      0.088757
     48 N5          6.5030   -4.5920   -1.0380 n         1 MOL     -0.833215
     49 C16         5.1410   -4.7690   -1.5370 c3        1 MOL      0.230405
     50 C17         4.1400   -4.9530   -0.3980 c         1 MOL      0.762182
     51 O10         4.4420   -5.6300    0.5920 o         1 MOL     -0.552852
     52 C18         5.2350   -5.9240   -2.5090 c3        1 MOL     -0.194528
     53 C19         6.0930   -5.5950   -3.7810 c         1 MOL      0.623852
     54 N6          5.8910   -6.2160   -4.8880 n         1 MOL     -0.704106
     55 O11         6.7210   -4.5410   -3.9230 o         1 MOL     -0.558793
     56 H20         7.1080   -5.3930   -0.9240 hn        1 MOL      0.372790
     57 H21         4.9480   -3.8330   -2.0490 h1        1 MOL      0.017297
     58 H22         4.2090   -6.1640   -2.7760 hc        1 MOL      0.055961
     59 H23         5.5390   -6.8700   -2.0750 hc        1 MOL      0.055961
     60 H24         5.2930   -7.0160   -4.9940 hn        1 MOL      0.345280
     61 H25         6.4830   -5.9560   -5.6600 hn        1 MOL      0.345280
     62 N7          2.9690   -4.3480   -0.6320 n         1 MOL     -0.774993
     63 C20         1.8640   -4.1670    0.3510 c3        1 MOL      0.213004
     64 C21         1.8040   -2.7910    0.9860 c         1 MOL      0.632241
     65 O12         2.7100   -2.0200    0.8130 o         1 MOL     -0.596745
     66 H26         2.8190   -3.8050   -1.4710 hn        1 MOL      0.347576
     67 H27         1.9470   -5.0160    1.0440 h1        1 MOL      0.051028
     68 H28         0.9010   -4.2470   -0.1460 h1        1 MOL      0.051028
     69 N8          0.8460   -2.5500    1.8870 n         1 MOL     -0.519518
     70 C22        -0.3430   -3.3510    2.2640 c3        1 MOL     -0.182288
     71 C23        -1.7200   -2.6740    2.2810 c         1 MOL      0.498796
     72 O13        -2.7990   -3.2920    2.5290 o         1 MOL     -0.563933
     73 C24        -0.2360   -4.0230    3.6410 c3        1 MOL      0.263409
     74 C25         0.9470   -4.9770    3.7880 c3        1 MOL     -0.355967
     75 O14        -0.1270   -3.2420    4.7930 oh        1 MOL     -0.572856
     76 H29         0.9610   -1.6760    2.3830 hn        1 MOL      0.356195
     77 H30        -0.4920   -4.2010    1.6070 h1        1 MOL      0.107053
     78 H31        -1.1860   -4.5370    3.8250 h1        1 MOL      0.108838
     79 H32         0.6780   -2.7440    4.6660 ho        1 MOL      0.381727
     80 H33         1.9320   -4.5130    3.7280 hc        1 MOL      0.087432
     81 H34         1.0180   -5.3120    4.8240 hc        1 MOL      0.087432
     82 H35         0.9570   -5.8750    3.1650 hc        1 MOL      0.087432
     83 N9         -1.6910   -1.3990    2.0300 n         1 MOL     -0.102928
     84 C26        -2.9850   -0.5910    2.0440 c3        1 MOL     -0.438918
     85 C27        -3.2820   -0.0180    0.6740 c         1 MOL      0.762258
     86 O15        -2.3180    0.4460    0.0660 o         1 MOL     -0.630347
     87 C28        -2.8600    0.5390    3.0480 c3        1 MOL      0.320429
     88 C29        -2.1980    0.3110    4.3990 c3        1 MOL      0.113221
     89 C30        -4.2490    1.1280    3.2250 c3        1 MOL     -0.458710
     90 C31        -1.7910    1.5270    5.1630 c3        1 MOL     -0.165603
     91 H36        -0.8160   -0.9950    1.7440 hn        1 MOL      0.173986
     92 H37        -3.8350   -1.1740    2.3830 h1        1 MOL      0.176342
     93 H38        -2.2490    1.3350    2.6030 hc        1 MOL     -0.029266
     94 H39        -1.3090   -0.2960    4.2360 hc        1 MOL     -0.041642
     95 H40        -2.8560   -0.2250    5.0840 hc        1 MOL     -0.041642
     96 H41        -4.8410    0.3090    3.6190 hc        1 MOL      0.132202
     97 H42        -4.2170    1.9390    3.9480 hc        1 MOL      0.132202
     98 H43        -4.5620    1.6960    2.3450 hc        1 MOL      0.132202
     99 H44        -1.1470    1.1690    5.9740 hc        1 MOL      0.029210
    100 H45        -1.1480    2.0780    4.4760 hc        1 MOL      0.029210
    101 H46        -2.7130    2.0110    5.4840 hc        1 MOL      0.029210
    102 N10        -4.4190   -0.0680    0.0140 n         1 MOL     -0.523653
    103 C32        -5.6160   -0.7730    0.4970 c3        1 MOL      0.079345
    104 C33        -6.9460   -0.2110   -0.0300 c         1 MOL      0.315066
    105 O16        -7.0470    0.5020   -1.0370 o         1 MOL     -0.421457
    106 C34        -5.5280   -2.2320    0.0000 c3        1 MOL     -0.196394
    107 C35        -5.3530   -2.2290   -1.5850 c         1 MOL      0.715852
    108 O17        -4.1700   -2.0990   -1.9960 o         1 MOL     -0.700665
    109 O18        -6.3560   -2.4390   -2.2480 o         1 MOL     -0.700665
    110 H47        -4.4480    0.1910   -0.9630 hn        1 MOL      0.339621
    111 H48        -5.6190   -0.6670    1.5880 h1        1 MOL      0.084956
    112 H49        -6.4330   -2.7980    0.2510 hc        1 MOL      0.026717
    113 H50        -4.6870   -2.6450    0.5650 hc        1 MOL      0.026717
    114 N11        -8.0830   -0.5930    0.5240 n         1 MOL     -0.402630
    115 C36        -9.4090   -0.7530   -0.0880 c3        1 MOL      0.644964
    116 C37       -10.4380    0.0110    0.6620 c         1 MOL      0.180060
    117 O19       -10.5480   -0.2490    1.8620 o         1 MOL     -0.523842
    118 C38        -9.7950   -2.2250   -0.1600 c3        1 MOL     -0.307899
    119 C39       -11.1660   -2.4510   -0.8400 ca        1 MOL      0.269468
    120 C40       -12.3720   -2.7330   -0.1030 ca        1 MOL     -0.294642
    121 C41       -11.2590   -2.2290   -2.1920 ca        1 MOL     -0.294642
    122 C42       -13.5880   -2.7520   -0.7830 ca        1 MOL     -0.039606
    123 C43       -12.4820   -2.2460   -2.8920 ca        1 MOL     -0.039606
    124 C44       -13.6820   -2.5190   -2.1750 ca        1 MOL     -0.197451
    125 H51        -7.9770   -0.8860    1.4830 hn        1 MOL      0.231751
    126 H52        -9.3800   -0.2610   -1.0550 h1        1 MOL     -0.078295
    127 H53        -9.8680   -2.6030    0.8610 hc        1 MOL      0.061175
    128 H54        -8.9600   -2.7330   -0.6530 hc        1 MOL      0.061175
    129 H55       -12.3670   -2.7770    0.9830 ha        1 MOL      0.164351
    130 H56       -10.3950   -2.0460   -2.8070 ha        1 MOL      0.164351
    131 H57       -14.5380   -2.8740   -0.2650 ha        1 MOL      0.086839
    132 H58       -12.5470   -2.0660   -3.9550 ha        1 MOL      0.086839
    133 H59       -14.6610   -2.4870   -2.6410 ha        1 MOL      0.106556
    134 N12       -11.3260    0.7980    0.0230 n         1 MOL      0.157637
    135 C45       -11.2610    1.3900   -1.3500 c3        1 MOL     -0.111125
    136 C46       -10.0840    2.3100   -1.7530 c         1 MOL      0.493196
    137 O20        -9.7820    2.4310   -2.9140 o         1 MOL     -0.544773
    138 C47       -12.5290    2.2360   -1.4580 c3        1 MOL     -0.008918
    139 C48       -13.5360    1.5340   -0.5540 c3        1 MOL      0.043773
    140 C49       -12.6630    1.0760    0.6130 c3        1 MOL     -0.227690
    141 H60       -11.4480    0.5980   -2.0780 h1        1 MOL      0.078508
    142 H61       -12.3090    3.2190   -1.0450 hc        1 MOL      0.021480
    143 H62       -12.8260    2.3480   -2.4980 hc        1 MOL      0.021480
    144 H63       -14.3810    2.2010   -0.3470 hc        1 MOL     -0.001934
    145 H64       -13.9740    0.6810   -1.0730 hc        1 MOL     -0.001934
    146 H65       -12.5470    1.9460    1.2550 h1        1 MOL      0.087143
    147 H66       -13.0790    0.2370    1.1810 h1        1 MOL      0.087143
    148 N13        -9.3620    2.9270   -0.7910 n         1 MOL     -0.333002
    149 C50        -8.1380    3.7430   -0.8570 c3        1 MOL      0.028452
    150 C51        -8.2380    4.9850   -1.7590 c         1 MOL      0.479854
    151 O21        -8.6800    6.0300   -1.3570 o         1 MOL     -0.576794
    152 C52        -7.7450    4.1470    0.5680 c3        1 MOL      0.103070
    153 C53        -7.3300    2.9030    1.4830 c3        1 MOL     -0.047066
    154 C54        -7.1240    3.4060    2.9390 c         1 MOL      0.735381
    155 O22        -6.6650    4.5020    3.1420 o         1 MOL     -0.732543
    156 O23        -7.6800    2.7330    3.8550 o         1 MOL     -0.732543
    157 H67        -9.6530    2.7860    0.1670 hn        1 MOL      0.216889
    158 H68        -7.3120    3.1070   -1.1730 h1        1 MOL      0.090252
    159 H69        -8.5760    4.6260    1.0900 hc        1 MOL     -0.006512
    160 H70        -6.9100    4.8410    0.5220 hc        1 MOL     -0.006512
    161 H71        -6.4360    2.4070    1.1090 hc        1 MOL     -0.072207
    162 H72        -8.1450    2.1760    1.4390 hc        1 MOL     -0.072207
    163 N14        -7.8000    4.8910   -3.0170 n         1 MOL     -0.324208
    164 C55        -7.0110    3.9070   -3.8140 c3        1 MOL     -0.115272
    165 H73        -6.1200    4.3920   -4.2100 h1        1 MOL      0.075768
    166 H74        -6.7170    3.0740   -3.1750 h1        1 MOL      0.075768
    167 H75        -7.6190    3.5350   -4.6390 h1        1 MOL      0.075768
    168 H76        -7.9200    5.7700   -3.4740 hn        1 MOL      0.234342
    169 Ca1         6.6020    0.2610   -1.7130 Ca        1 MOL      1.734044
    170 O24         5.3230    2.6870   -0.9640 oh        1 MOL     -0.849032
    171 H77         5.4000    2.7340   -0.0080 ho        1 MOL      0.417102
    172 H78         4.4470    3.0220   -1.1530 ho        1 MOL      0.417102
    173 O25         6.8840   -1.7280   -3.2580 oh        1 MOL     -0.849032
    174 H79         7.2880   -1.5070   -4.1020 ho        1 MOL      0.417102
    175 H80         6.9890   -2.6730   -3.1850 ho        1 MOL      0.417102
    176 O26         4.0940   -0.6140   -1.0610 oh        1 MOL     -0.849032
    177 H81         3.8880   -0.8120   -0.1500 ho        1 MOL      0.417102
    178 H82         3.3570   -0.9790   -1.5590 ho        1 MOL      0.417102
    179 O27         5.9460    1.3510   -4.0850 oh        1 MOL     -0.849032
    180 H83         6.7660    1.1110   -4.5130 ho        1 MOL      0.417102
    181 H84         5.4100    1.7380   -4.7810 ho        1 MOL      0.417102
@<TRIPOS>BOND
     1    1    2 1   
     2    1    4 1   
     3    1    5 1   
     4    1    6 1   
     5    2    3 2   
     6    2    7 1   
     7    7    8 1   
     8    7   15 1   
     9    8    9 1   
    10    8   11 1   
    11    8   16 1   
    12    9   10 2   
    13    9   19 1   
    14   11   12 1   
    15   11   17 1   
    16   11   18 1   
    17   12   13 1   
    18   12   14 1   
    19   19   20 1   
    20   19   24 1   
    21   20   21 1   
    22   20   23 1   
    23   20   25 1   
    24   21   22 2   
    25   21   29 1   
    26   23   26 1   
    27   23   27 1   
    28   23   28 1   
    29   29   30 1   
    30   29   37 1   
    31   30   31 1   
    32   30   33 1   
    33   30   38 1   
    34   31   32 2   
    35   31   41 1   
    36   33   34 1   
    37   33   39 1   
    38   33   40 1   
    39   34   35 1   
    40   34   36 1   
    41   41   42 1   
    42   41   45 1   
    43   42   43 1   
    44   42   46 1   
    45   42   47 1   
    46   43   44 2   
    47   43   48 1   
    48   48   49 1   
    49   48   56 1   
    50   49   50 1   
    51   49   52 1   
    52   49   57 1   
    53   50   51 2   
    54   50   62 1   
    55   52   53 1   
    56   52   58 1   
    57   52   59 1   
    58   53   54 1   
    59   53   55 2   
    60   54   60 1   
    61   54   61 1   
    62   62   63 1   
    63   62   66 1   
    64   63   64 1   
    65   63   67 1   
    66   63   68 1   
    67   64   65 2   
    68   64   69 1   
    69   69   70 1   
    70   69   76 1   
    71   70   71 1   
    72   70   73 1   
    73   70   77 1   
    74   71   72 2   
    75   71   83 1   
    76   73   74 1   
    77   73   75 1   
    78   73   78 1   
    79   74   80 1   
    80   74   81 1   
    81   74   82 1   
    82   75   79 1   
    83   83   84 1   
    84   83   91 1   
    85   84   85 1   
    86   84   87 1   
    87   84   92 1   
    88   85   86 2   
    89   85  102 1   
    90   87   88 1   
    91   87   89 1   
    92   87   93 1   
    93   88   90 1   
    94   88   94 1   
    95   88   95 1   
    96   89   96 1   
    97   89   97 1   
    98   89   98 1   
    99   90   99 1   
   100   90  100 1   
   101   90  101 1   
   102  102  103 1   
   103  102  110 1   
   104  103  104 1   
   105  103  106 1   
   106  103  111 1   
   107  104  105 2   
   108  104  114 1   
   109  106  107 1   
   110  106  112 1   
   111  106  113 1   
   112  107  108 1   
   113  107  109 1   
   114  114  115 1   
   115  114  125 1   
   116  115  116 1   
   117  115  118 1   
   118  115  126 1   
   119  116  117 2   
   120  116  134 1   
   121  118  119 1   
   122  118  127 1   
   123  118  128 1   
   124  119  120 ar  
   125  119  121 ar  
   126  120  122 ar  
   127  120  129 1   
   128  121  123 ar  
   129  121  130 1   
   130  122  124 ar  
   131  122  131 1   
   132  123  124 ar  
   133  123  132 1   
   134  124  133 1   
   135  134  135 1   
   136  134  140 1   
   137  135  136 1   
   138  135  138 1   
   139  135  141 1   
   140  136  137 2   
   141  136  148 1   
   142  138  139 1   
   143  138  142 1   
   144  138  143 1   
   145  139  140 1   
   146  139  144 1   
   147  139  145 1   
   148  140  146 1   
   149  140  147 1   
   150  148  149 1   
   151  148  157 1   
   152  149  150 1   
   153  149  152 1   
   154  149  158 1   
   155  150  151 2   
   156  150  163 1   
   157  152  153 1   
   158  152  159 1   
   159  152  160 1   
   160  153  154 1   
   161  153  161 1   
   162  153  162 1   
   163  154  155 1   
   164  154  156 1   
   165  163  164 1   
   166  163  168 1   
   167  164  165 1   
   168  164  166 1   
   169  164  167 1   
   170  170  171 1   
   171  170  172 1   
   172  173  174 1   
   173  173  175 1   
   174  176  177 1   
   175  176  178 1   
   176  179  180 1   
   177  179  181 1   
@<TRIPOS>SUBSTRUCTURE
     1 MOL         1 TEMP              0 ****  ****    0 ROOT
