@<TRIPOS>MOLECULE
MOL
  192   187     1     0     0
SMALL
resp


@<TRIPOS>ATOM
      1 C1          6.6330    0.7570    5.4670 c3        1 MOL     -0.250226
      2 C2          5.7380    0.6830    4.1780 c         1 MOL      0.755736
      3 O1          5.4440    1.7160    3.5960 o         1 MOL     -0.595993
      4 H1          7.6320    0.3850    5.2370 hc        1 MOL      0.062007
      5 H2          6.6990    1.7910    5.8050 hc        1 MOL      0.062007
      6 H3          6.1900    0.1440    6.2530 hc        1 MOL      0.062007
      7 N1          5.4950   -0.5050    3.6430 n         1 MOL     -0.687799
      8 C3          5.0420   -0.6890    2.2640 c3        1 MOL      0.572234
      9 C4          3.5560   -0.2740    1.9470 c         1 MOL      0.004109
     10 O2          3.0760   -0.3030    0.8070 o         1 MOL     -0.245410
     11 C5          5.3400   -2.0350    1.5740 c3        1 MOL      0.070856
     12 C6          6.7550   -2.5100    1.7490 c         1 MOL      0.656973
     13 O3          7.2170   -2.8650    2.8370 o         1 MOL     -0.675485
     14 O4          7.5360   -2.6170    0.7790 o         1 MOL     -0.675485
     15 H4          5.7750   -1.3390    4.1480 hn        1 MOL      0.273933
     16 H5          5.6330    0.0350    1.6920 h1        1 MOL      0.053996
     17 H6          5.1910   -1.8550    0.5090 hc        1 MOL     -0.143106
     18 H7          4.7510   -2.8380    2.0170 hc        1 MOL     -0.143106
     19 N2          2.7210    0.1200    2.9470 n         1 MOL     -0.293225
     20 C7          1.3080    0.3150    2.8460 c3        1 MOL      0.163164
     21 C8          0.8970    1.6920    2.5640 c         1 MOL      0.292255
     22 O5          1.3850    2.6540    3.2550 o         1 MOL     -0.499116
     23 C9          0.5320   -0.0720    4.1770 c3        1 MOL     -0.070047
     24 C10         0.5190   -1.6690    4.3100 c3        1 MOL     -0.068304
     25 C11        -0.1550   -2.2570    5.5530 c3        1 MOL     -0.016644
     26 C12        -0.5930   -3.6450    5.1280 c3        1 MOL      0.081855
     27 N3         -1.0440   -4.4120    6.2920 n4        1 MOL     -0.421158
     28 H8          3.1450    0.4600    3.8010 hn        1 MOL      0.239158
     29 H9          1.0150   -0.2480    1.9680 h1        1 MOL      0.125968
     30 H10        -0.4690    0.3400    4.1730 hc        1 MOL      0.061849
     31 H11         1.0980    0.1990    5.0740 hc        1 MOL      0.061849
     32 H12         1.5360   -2.0100    4.1530 hc        1 MOL     -0.004889
     33 H13        -0.0190   -2.0430    3.4400 hc        1 MOL     -0.004889
     34 H14        -0.9930   -1.6320    5.8400 hc        1 MOL      0.039282
     35 H15         0.5390   -2.2100    6.3920 hc        1 MOL      0.039282
     36 H16         0.1920   -4.1690    4.5920 hx        1 MOL      0.099081
     37 H17        -1.4370   -3.6100    4.4310 hx        1 MOL      0.099081
     38 H18        -0.1890   -4.7140    6.7170 hn        1 MOL      0.336503
     39 H19        -1.6560   -3.9520    6.9540 hn        1 MOL      0.336503
     40 H20        -1.5050   -5.2310    5.9310 hn        1 MOL      0.336503
     41 N4          0.1080    2.0500    1.5530 n         1 MOL     -0.109224
     42 C13        -0.7310    1.3190    0.5900 c3        1 MOL     -0.167389
     43 C14        -1.5630    0.2270    1.1470 c         1 MOL      0.521376
     44 O6         -1.3130   -0.9660    1.0600 o         1 MOL     -0.515517
     45 C15        -0.0190    0.7880   -0.5870 c3        1 MOL     -0.611196
     46 C16         0.6310    1.8840   -1.4870 c         1 MOL      0.857559
     47 O7          0.3060    3.1070   -1.2950 o         1 MOL     -0.782905
     48 O8          1.4520    1.5530   -2.4050 o         1 MOL     -0.782905
     49 H21         0.3160    3.0080    1.2950 hn        1 MOL      0.126848
     50 H22        -1.4010    1.9480   -0.0080 h1        1 MOL      0.076642
     51 H23        -0.6950    0.2060   -1.2140 hc        1 MOL      0.230717
     52 H24         0.7460    0.0610   -0.2980 hc        1 MOL      0.230717
     53 N5         -2.7270    0.5480    1.6880 n         1 MOL     -0.414067
     54 C17        -3.3220    1.8800    1.8410 c3        1 MOL      0.040838
     55 C18        -4.4770    1.9570    2.8310 c         1 MOL      0.572420
     56 O9         -4.6460    1.0910    3.6340 o         1 MOL     -0.531381
     57 H25        -3.3960   -0.1840    1.8890 hn        1 MOL      0.273728
     58 H26        -3.5680    2.1690    0.8210 h1        1 MOL      0.033322
     59 H27        -2.5550    2.5910    2.1700 h1        1 MOL      0.033322
     60 N6         -5.1790    3.0720    3.0590 n         1 MOL     -0.446120
     61 C19        -5.2580    4.1300    2.0610 c3        1 MOL      0.176823
     62 C20        -5.9760    3.7630    0.7560 c         1 MOL      0.325427
     63 O10        -7.1140    3.3140    0.9070 o         1 MOL     -0.430323
     64 C21        -5.8790    5.3320    2.6430 c3        1 MOL     -0.040758
     65 C22        -7.1140    5.2160    3.5130 c         1 MOL      0.686688
     66 O11        -8.1380    5.6020    2.9950 o         1 MOL     -0.643040
     67 O12        -7.0530    4.7140    4.6600 o         1 MOL     -0.643040
     68 H28        -5.8230    3.1110    3.8370 hn        1 MOL      0.270545
     69 H29        -4.2390    4.4320    1.8280 h1        1 MOL     -0.060973
     70 H30        -6.0740    6.0690    1.8640 hc        1 MOL     -0.022841
     71 H31        -5.1030    5.7490    3.2870 hc        1 MOL     -0.022841
     72 N7         -5.4410    3.9940   -0.4160 n         1 MOL     -0.054313
     73 C23        -6.1250    3.9390   -1.7350 c3        1 MOL     -0.417104
     74 C24        -6.1580    2.3850   -2.1970 c         1 MOL      0.632621
     75 O13        -6.9900    2.0640   -3.0070 o         1 MOL     -0.539502
     76 H32        -4.5710    4.5150   -0.4070 hn        1 MOL      0.125956
     77 H33        -5.4810    4.4630   -2.4480 h1        1 MOL      0.178039
     78 H34        -7.1340    4.3400   -1.7450 h1        1 MOL      0.178039
     79 N8         -5.2700    1.5080   -1.6750 n         1 MOL     -0.604039
     80 C25        -5.0680    0.1010   -2.1670 c3        1 MOL      0.272440
     81 C26        -5.3480   -0.9730   -1.0790 c         1 MOL      0.498814
     82 O14        -5.1250   -0.7770    0.0930 o         1 MOL     -0.502654
     83 C27        -3.6470   -0.1650   -2.6270 c3        1 MOL      0.279905
     84 C28        -3.3030    0.7210   -3.8180 c3        1 MOL     -0.209783
     85 O15        -3.3890   -1.4210   -3.0320 oh        1 MOL     -0.634897
     86 H35        -4.6270    1.9140   -1.0120 hn        1 MOL      0.267308
     87 H36        -5.7930   -0.2290   -2.9170 h1        1 MOL      0.016923
     88 H37        -3.0050    0.0360   -1.7710 h1        1 MOL      0.080273
     89 H38        -2.6660   -1.8120   -2.5370 ho        1 MOL      0.349844
     90 H39        -3.2110    1.7540   -3.4600 hc        1 MOL      0.039725
     91 H40        -2.3380    0.4960   -4.2750 hc        1 MOL      0.039725
     92 H41        -4.0230    0.7510   -4.6260 hc        1 MOL      0.039725
     93 N9         -5.7850   -2.0850   -1.5530 n         1 MOL     -0.445263
     94 C29        -6.1180   -3.2390   -0.6330 c3        1 MOL     -0.199645
     95 C30        -4.8370   -4.0690   -0.4010 c         1 MOL      0.587372
     96 O16        -4.8020   -4.8790    0.5780 o         1 MOL     -0.568080
     97 C31        -7.1760   -4.1110   -1.3010 c3        1 MOL      0.170802
     98 C32        -8.3970   -3.3980   -1.9070 c3        1 MOL     -0.087482
     99 C33        -7.5320   -5.3070   -0.4130 c3        1 MOL     -0.209851
    100 C34        -9.5080   -4.2140   -2.5970 c3        1 MOL     -0.217390
    101 H42        -5.7640   -2.1640   -2.5620 hn        1 MOL      0.289350
    102 H43        -6.5490   -2.9520    0.3230 h1        1 MOL      0.176477
    103 H44        -6.6860   -4.6350   -2.1210 hc        1 MOL     -0.010800
    104 H45        -8.1140   -2.6110   -2.6030 hc        1 MOL      0.063687
    105 H46        -8.9250   -2.8050   -1.1630 hc        1 MOL      0.063687
    106 H47        -7.8940   -4.9490    0.5450 hc        1 MOL      0.057814
    107 H48        -8.2960   -5.9680   -0.8340 hc        1 MOL      0.057814
    108 H49        -6.6580   -5.9350   -0.2640 hc        1 MOL      0.057814
    109 H50        -9.0650   -4.8660   -3.3480 hc        1 MOL      0.061454
    110 H51       -10.0200   -4.8490   -1.8760 hc        1 MOL      0.061454
    111 H52       -10.2960   -3.5670   -2.9780 hc        1 MOL      0.061454
    112 N10        -3.8290   -4.0070   -1.2770 n         1 MOL     -0.420781
    113 C35        -2.4550   -4.4480   -1.1380 c3        1 MOL      0.237237
    114 C36        -1.4470   -3.3410   -1.0240 c         1 MOL      0.372716
    115 O17        -1.5110   -2.3040   -1.6520 o         1 MOL     -0.352729
    116 C37        -2.1860   -5.6160   -2.0380 c3        1 MOL      0.292597
    117 C38        -3.0510   -6.8580   -1.6830 c3        1 MOL     -0.367285
    118 O18        -0.9360   -6.1210   -1.7530 oh        1 MOL     -0.605571
    119 H53        -3.9760   -3.3450   -2.0240 hn        1 MOL      0.179921
    120 H54        -2.4200   -4.8540   -0.1270 h1        1 MOL      0.047597
    121 H55        -2.3000   -5.3560   -3.0910 h1        1 MOL      0.023515
    122 H56        -0.4720   -6.0810   -2.5970 ho        1 MOL      0.398303
    123 H57        -4.1280   -6.7410   -1.7910 hc        1 MOL      0.102547
    124 H58        -2.7320   -7.5950   -2.4240 hc        1 MOL      0.102547
    125 H59        -2.8120   -7.1580   -0.6680 hc        1 MOL      0.102547
    126 N11        -0.2900   -3.6890   -0.2790 n         1 MOL     -0.549743
    127 C39         0.9970   -3.0280   -0.1370 c3        1 MOL      0.170305
    128 C40         1.6140   -2.5700   -1.4090 c         1 MOL      0.335744
    129 O19         1.2320   -3.0400   -2.4830 o         1 MOL     -0.537416
    130 C41         2.0850   -3.9530    0.5570 c3        1 MOL      0.181225
    131 C42         2.3150   -5.2080   -0.2730 c3        1 MOL     -0.285374
    132 O20         1.6420   -4.3620    1.8660 oh        1 MOL     -0.666487
    133 H60        -0.2910   -4.6450    0.0450 hn        1 MOL      0.333124
    134 H61         0.8160   -2.1100    0.4190 h1        1 MOL      0.124812
    135 H62         3.0140   -3.3880    0.6610 h1        1 MOL      0.165863
    136 H63         2.2920   -4.9100    2.3120 ho        1 MOL      0.427120
    137 H64         1.4120   -5.8170   -0.2780 hc        1 MOL      0.067115
    138 H65         2.7680   -4.9810   -1.2320 hc        1 MOL      0.067115
    139 H66         3.0420   -5.7190    0.3610 hc        1 MOL      0.067115
    140 N12         2.6210   -1.6760   -1.4230 n         1 MOL      0.029537
    141 C43         3.2790   -1.1070   -2.6210 c3        1 MOL     -0.129029
    142 C44         4.0200    0.1950   -2.4980 c         1 MOL      0.524612
    143 O21         4.8920    0.4580   -3.3940 o         1 MOL     -0.611582
    144 C45         4.1250   -2.2380   -3.2720 c3        1 MOL     -0.197853
    145 C46         5.3180   -2.5670   -2.3840 c3        1 MOL      0.684147
    146 C47         6.2870   -3.4920   -3.1520 c3        1 MOL     -0.408309
    147 C48         7.7260   -3.7230   -2.5850 c3        1 MOL     -0.039583
    148 N13         7.6620   -4.4970   -1.2770 n4        1 MOL     -0.245893
    149 H67         2.8500   -1.1990   -0.5620 hn        1 MOL     -0.202345
    150 H68         2.4730   -0.9010   -3.3290 h1        1 MOL      0.138765
    151 H69         4.4500   -1.9750   -4.2810 hc        1 MOL      0.042292
    152 H70         3.6180   -3.1960   -3.3780 hc        1 MOL      0.042292
    153 H71         5.0650   -3.1700   -1.5140 hc        1 MOL     -0.133936
    154 H72         5.8360   -1.6600   -2.0620 hc        1 MOL     -0.133936
    155 H73         6.5190   -3.0320   -4.1160 hc        1 MOL      0.090622
    156 H74         5.8590   -4.4560   -3.4430 hc        1 MOL      0.090622
    157 H75         8.3070   -2.8320   -2.3400 hx        1 MOL      0.119683
    158 H76         8.3700   -4.3050   -3.2460 hx        1 MOL      0.119683
    159 H77         7.4020   -3.9180   -0.4970 hn        1 MOL      0.267399
    160 H78         6.9550   -5.2170   -1.3480 hn        1 MOL      0.267399
    161 H79         8.5290   -4.9940   -1.1030 hn        1 MOL      0.267399
    162 N14         4.0260    0.9400   -1.4130 n         1 MOL      0.455639
    163 C49         4.7960    2.1610   -1.1730 c3        1 MOL     -1.383742
    164 C50         6.2900    1.9300   -0.8710 c         1 MOL      0.922920
    165 O22         6.6560    0.9330   -0.2140 o         1 MOL     -0.543364
    166 C51         4.0210    2.8790   -0.0730 c3        1 MOL      0.409849
    167 C52         4.6520    4.1990    0.1520 c3        1 MOL     -1.110885
    168 C53         4.6850    5.1030   -1.0160 c         1 MOL      1.078942
    169 O23         5.7090    5.2660   -1.6750 o         1 MOL     -0.810410
    170 O24         3.6270    5.6420   -1.3600 o         1 MOL     -0.810410
    171 H80         3.3210    0.7450   -0.7140 hn        1 MOL      0.021769
    172 H81         4.6320    2.6990   -2.1030 h1        1 MOL      0.379176
    173 H82         4.1040    2.4250    0.9120 hc        1 MOL      0.086545
    174 H83         2.9760    2.9180   -0.3580 hc        1 MOL      0.086545
    175 H84         5.6390    4.1550    0.6140 hc        1 MOL      0.278906
    176 H85         4.0870    4.7120    0.9290 hc        1 MOL      0.278906
    177 N15         7.1450    2.8280   -1.4570 n         1 MOL     -0.547230
    178 C54         8.6140    2.9200   -1.1690 c3        1 MOL      0.020974
    179 H86         9.1170    2.0350   -1.5600 h1        1 MOL      0.043824
    180 H87         9.0240    3.8090   -1.6470 h1        1 MOL      0.043824
    181 H88         8.7710    2.9800   -0.0920 h1        1 MOL      0.043824
    182 H89         6.8290    3.6280   -1.9750 hn        1 MOL      0.503673
    183 Ca1         1.0910    5.6800   -1.7960 Ca        1 MOL      1.643283
    184 O25        -0.8000    5.0850   -3.6320 oh        1 MOL     -0.892147
    185 H90        -1.6620    5.4340   -3.8660 ho        1 MOL      0.442790
    186 H91        -0.6580    4.3610   -4.2370 ho        1 MOL      0.442790
    187 O26         1.7350    6.7850   -4.1620 oh        1 MOL     -0.892147
    188 H92         1.7110    6.3620   -5.0260 ho        1 MOL      0.442790
    189 H93         2.4680    7.3940   -4.2070 ho        1 MOL      0.442790
    190 O27         2.3350    3.9590   -3.4500 oh        1 MOL     -0.892147
    191 H94         2.0560    3.6930   -4.3220 ho        1 MOL      0.442790
    192 H95         2.1690    3.1960   -2.9020 ho        1 MOL      0.442790
@<TRIPOS>BOND
     1    1    2 1   
     2    1    4 1   
     3    1    5 1   
     4    1    6 1   
     5    2    3 2   
     6    2    7 1   
     7    7    8 1   
     8    7   15 1   
     9    8    9 1   
    10    8   11 1   
    11    8   16 1   
    12    9   10 2   
    13    9   19 1   
    14   11   12 1   
    15   11   17 1   
    16   11   18 1   
    17   12   13 1   
    18   12   14 1   
    19   19   20 1   
    20   19   28 1   
    21   20   21 1   
    22   20   23 1   
    23   20   29 1   
    24   21   22 2   
    25   21   41 1   
    26   23   24 1   
    27   23   30 1   
    28   23   31 1   
    29   24   25 1   
    30   24   32 1   
    31   24   33 1   
    32   25   26 1   
    33   25   34 1   
    34   25   35 1   
    35   26   27 1   
    36   26   36 1   
    37   26   37 1   
    38   27   38 1   
    39   27   39 1   
    40   27   40 1   
    41   41   42 1   
    42   41   49 1   
    43   42   43 1   
    44   42   45 1   
    45   42   50 1   
    46   43   44 2   
    47   43   53 1   
    48   45   46 1   
    49   45   51 1   
    50   45   52 1   
    51   46   47 1   
    52   46   48 1   
    53   53   54 1   
    54   53   57 1   
    55   54   55 1   
    56   54   58 1   
    57   54   59 1   
    58   55   56 2   
    59   55   60 1   
    60   60   61 1   
    61   60   68 1   
    62   61   62 1   
    63   61   64 1   
    64   61   69 1   
    65   62   63 2   
    66   62   72 1   
    67   64   65 1   
    68   64   70 1   
    69   64   71 1   
    70   65   66 1   
    71   65   67 1   
    72   72   73 1   
    73   72   76 1   
    74   73   74 1   
    75   73   77 1   
    76   73   78 1   
    77   74   75 2   
    78   74   79 1   
    79   79   80 1   
    80   79   86 1   
    81   80   81 1   
    82   80   83 1   
    83   80   87 1   
    84   81   82 2   
    85   81   93 1   
    86   83   84 1   
    87   83   85 1   
    88   83   88 1   
    89   84   90 1   
    90   84   91 1   
    91   84   92 1   
    92   85   89 1   
    93   93   94 1   
    94   93  101 1   
    95   94   95 1   
    96   94   97 1   
    97   94  102 1   
    98   95   96 2   
    99   95  112 1   
   100   97   98 1   
   101   97   99 1   
   102   97  103 1   
   103   98  100 1   
   104   98  104 1   
   105   98  105 1   
   106   99  106 1   
   107   99  107 1   
   108   99  108 1   
   109  100  109 1   
   110  100  110 1   
   111  100  111 1   
   112  112  113 1   
   113  112  119 1   
   114  113  114 1   
   115  113  116 1   
   116  113  120 1   
   117  114  115 2   
   118  114  126 1   
   119  116  117 1   
   120  116  118 1   
   121  116  121 1   
   122  117  123 1   
   123  117  124 1   
   124  117  125 1   
   125  118  122 1   
   126  126  127 1   
   127  126  133 1   
   128  127  128 1   
   129  127  130 1   
   130  127  134 1   
   131  128  129 2   
   132  128  140 1   
   133  130  131 1   
   134  130  132 1   
   135  130  135 1   
   136  131  137 1   
   137  131  138 1   
   138  131  139 1   
   139  132  136 1   
   140  140  141 1   
   141  140  149 1   
   142  141  142 1   
   143  141  144 1   
   144  141  150 1   
   145  142  143 2   
   146  142  162 1   
   147  144  145 1   
   148  144  151 1   
   149  144  152 1   
   150  145  146 1   
   151  145  153 1   
   152  145  154 1   
   153  146  147 1   
   154  146  155 1   
   155  146  156 1   
   156  147  148 1   
   157  147  157 1   
   158  147  158 1   
   159  148  159 1   
   160  148  160 1   
   161  148  161 1   
   162  162  163 1   
   163  162  171 1   
   164  163  164 1   
   165  163  166 1   
   166  163  172 1   
   167  164  165 2   
   168  164  177 1   
   169  166  167 1   
   170  166  173 1   
   171  166  174 1   
   172  167  168 1   
   173  167  175 1   
   174  167  176 1   
   175  168  169 1   
   176  168  170 1   
   177  177  178 1   
   178  177  182 1   
   179  178  179 1   
   180  178  180 1   
   181  178  181 1   
   182  184  185 1   
   183  184  186 1   
   184  187  188 1   
   185  187  189 1   
   186  190  191 1   
   187  190  192 1   
@<TRIPOS>SUBSTRUCTURE
     1 MOL         1 TEMP              0 ****  ****    0 ROOT
