@<TRIPOS>MOLECULE
MOL
  192   187     1     0     0
SMALL
resp


@<TRIPOS>ATOM
      1 C1          2.5530    3.3560    3.2830 c3        1 MOL     -0.609390
      2 C2          1.8960    3.6600    1.9720 c         1 MOL      0.713500
      3 O1          0.9550    2.9100    1.5150 o         1 MOL     -0.477032
      4 H1          3.5000    2.8450    3.1040 hc        1 MOL      0.155400
      5 H2          2.7380    4.2850    3.8210 hc        1 MOL      0.155400
      6 H3          1.9020    2.7150    3.8760 hc        1 MOL      0.155400
      7 N1          2.3540    4.6870    1.2440 n         1 MOL     -0.615715
      8 C3          1.7090    5.2060    0.0310 c3        1 MOL      0.128974
      9 C4          0.2040    5.1330    0.0920 c         1 MOL      0.705205
     10 O2         -0.3990    4.4670   -0.7210 o         1 MOL     -0.500545
     11 C5          2.4760    4.4930   -1.0820 c3        1 MOL     -0.568716
     12 C6          3.9760    4.3070   -1.0010 c         1 MOL      1.185093
     13 O3          4.6200    3.2200   -0.9050 o         1 MOL     -0.879191
     14 O4          4.7310    5.2440   -1.0590 o         1 MOL     -0.879191
     15 H4          3.1100    5.2110    1.6600 hn        1 MOL      0.249510
     16 H5          1.9020    6.2790   -0.0040 h1        1 MOL      0.079268
     17 H6          2.2530    4.9910   -2.0340 hc        1 MOL      0.134962
     18 H7          2.0580    3.4970   -1.2340 hc        1 MOL      0.134962
     19 N2         -0.4330    5.7580    1.0650 n         1 MOL     -0.657455
     20 C7         -1.8650    5.9700    1.0060 c3        1 MOL     -0.169926
     21 C8         -2.3020    7.0200   -0.0510 c         1 MOL      0.418674
     22 O5         -1.6720    8.0250   -0.3920 o         1 MOL     -0.549811
     23 C9         -2.5190    6.4430    2.3980 c3        1 MOL      0.148846
     24 C10        -1.9850    7.8040    2.9180 c3        1 MOL      0.237679
     25 C11        -2.5960    5.1890    3.3200 c3        1 MOL     -0.137335
     26 C12        -2.3410    8.2710    4.2990 c3        1 MOL     -0.346678
     27 H8          0.0620    6.1740    1.8360 hn        1 MOL      0.354899
     28 H9         -2.2340    4.9960    0.6810 h1        1 MOL      0.229116
     29 H10        -3.5530    6.7460    2.2540 hc        1 MOL      0.080379
     30 H11        -2.1360    8.6180    2.2100 hc        1 MOL     -0.035841
     31 H12        -0.8950    7.7430    2.9570 hc        1 MOL     -0.035841
     32 H13        -2.9870    4.3500    2.7580 hc        1 MOL      0.024248
     33 H14        -1.5690    4.9420    3.6130 hc        1 MOL      0.024248
     34 H15        -3.1740    5.4310    4.2060 hc        1 MOL      0.024248
     35 H16        -2.0060    9.3100    4.3830 hc        1 MOL      0.067332
     36 H17        -3.4160    8.1270    4.3270 hc        1 MOL      0.067332
     37 H18        -1.8360    7.5790    4.9600 hc        1 MOL      0.067332
     38 N3         -3.5670    6.9330   -0.5040 n         1 MOL     -0.371852
     39 C13        -4.7190    5.9920   -0.1120 c3        1 MOL     -0.044832
     40 C14        -4.5820    4.5370   -0.5960 c         1 MOL      0.602824
     41 O6         -5.1180    3.5730   -0.0160 o         1 MOL     -0.494669
     42 C15        -6.0520    6.6580   -0.5310 c3        1 MOL     -0.228759
     43 C16        -7.2590    5.7810   -0.1030 c         1 MOL      0.705091
     44 O7         -7.6530    5.5050    1.0170 o         1 MOL     -0.654387
     45 O8         -7.9200    5.4100   -1.0690 o         1 MOL     -0.654387
     46 H19        -3.8270    7.7000   -1.1160 hn        1 MOL      0.276714
     47 H20        -4.7650    5.8810    0.9710 h1        1 MOL     -0.014872
     48 H21        -6.0560    6.7360   -1.6210 hc        1 MOL      0.052578
     49 H22        -6.0650    7.6590   -0.0990 hc        1 MOL      0.052578
     50 N4         -3.7560    4.3660   -1.6550 n         1 MOL     -0.442098
     51 C17        -3.3640    3.0400   -2.0820 c3        1 MOL     -0.054308
     52 C18        -4.4300    2.2660   -2.8840 c         1 MOL      0.565689
     53 O9         -5.3730    2.8620   -3.3800 o         1 MOL     -0.534440
     54 H23        -3.3240    5.1760   -2.0810 hn        1 MOL      0.300426
     55 H24        -3.0720    2.4360   -1.2310 h1        1 MOL      0.070665
     56 H25        -2.5150    3.1600   -2.7470 h1        1 MOL      0.070665
     57 N5         -4.3530    0.9430   -2.9720 n         1 MOL     -0.552427
     58 C19        -5.4930    0.0930   -3.6390 c3        1 MOL      0.176417
     59 C20        -6.4780   -0.3750   -2.5930 c         1 MOL      0.357703
     60 O10        -7.5520   -0.8280   -2.9680 o         1 MOL     -0.518295
     61 C21        -4.8870   -1.0630   -4.4710 c3        1 MOL     -0.293525
     62 C22        -3.9100   -2.0330   -3.7190 c         1 MOL      0.707337
     63 O11        -3.3160   -2.9010   -4.3910 o         1 MOL     -0.691888
     64 O12        -3.7880   -1.9360   -2.4690 o         1 MOL     -0.691888
     65 H26        -3.5940    0.3480   -2.6880 hn        1 MOL      0.297758
     66 H27        -6.0000    0.7510   -4.3490 h1        1 MOL      0.078403
     67 H28        -4.3100   -0.6420   -5.2940 hc        1 MOL      0.058546
     68 H29        -5.6580   -1.6730   -4.9540 hc        1 MOL      0.058546
     69 N6         -6.2520   -0.1420   -1.2720 n         1 MOL     -0.046016
     70 C23        -7.1810   -0.6190   -0.1980 c3        1 MOL     -0.309191
     71 C24        -7.0160   -2.1160    0.1800 c         1 MOL      0.569422
     72 O13        -7.8610   -2.6370    0.8710 o         1 MOL     -0.568159
     73 H30        -5.4830    0.4550   -1.0000 hn        1 MOL      0.195464
     74 H31        -8.2390   -0.4960   -0.4180 h1        1 MOL      0.124252
     75 H32        -6.9340    0.0310    0.6450 h1        1 MOL      0.124252
     76 N7         -5.9780   -2.7850   -0.3330 n         1 MOL     -0.064802
     77 C25        -5.6650   -4.2250   -0.3180 c3        1 MOL     -0.050456
     78 C26        -5.4970   -4.9050    1.0960 c         1 MOL      0.636682
     79 O14        -5.7400   -6.0890    1.2330 o         1 MOL     -0.543486
     80 C27        -6.5630   -5.0750   -1.2880 c3        1 MOL     -0.023638
     81 C28        -6.4890   -4.7230   -2.7730 c3        1 MOL      0.044773
     82 C29        -7.6200   -5.4290   -3.4310 c         1 MOL      0.592232
     83 N8         -7.4980   -5.6130   -4.7100 n         1 MOL     -0.752307
     84 O15        -8.6330   -5.8440   -2.8590 o         1 MOL     -0.580315
     85 H33        -5.4070   -2.2000   -0.9210 hn        1 MOL      0.023279
     86 H34        -4.6950   -4.3820   -0.7980 h1        1 MOL      0.104672
     87 H35        -7.5530   -5.0120   -0.8340 hc        1 MOL      0.012158
     88 H36        -6.1760   -6.0950   -1.2060 hc        1 MOL      0.012158
     89 H37        -5.5740   -5.1260   -3.2010 hc        1 MOL      0.018877
     90 H38        -6.6100   -3.6540   -2.9720 hc        1 MOL      0.018877
     91 H39        -6.6480   -5.3780   -5.2040 hn        1 MOL      0.334844
     92 H40        -8.2360   -6.1140   -5.1870 hn        1 MOL      0.334844
     93 N9         -5.0400   -4.0610    2.0120 n         1 MOL     -0.555367
     94 C30        -4.6650   -4.4600    3.4650 c3        1 MOL      0.082191
     95 C31        -3.2330   -4.1480    3.8270 c         1 MOL      0.473615
     96 O16        -2.5760   -4.8570    4.5780 o         1 MOL     -0.589084
     97 C32        -5.6420   -3.7890    4.4350 c3        1 MOL     -0.010018
     98 C33        -5.6820   -2.2680    4.4020 c3        1 MOL     -0.153940
     99 C34        -7.0590   -4.4180    4.2720 c3        1 MOL     -0.153940
    100 H41        -5.0190   -3.0690    1.8380 hn        1 MOL      0.194280
    101 H42        -4.7750   -5.5350    3.6280 h1        1 MOL      0.098065
    102 H43        -5.3040   -3.9080    5.4670 hc        1 MOL      0.002592
    103 H44        -6.2820   -1.8630    5.2140 hc        1 MOL      0.048658
    104 H45        -4.7570   -1.6990    4.4570 hc        1 MOL      0.048658
    105 H46        -6.2600   -2.0600    3.5030 hc        1 MOL      0.048658
    106 H47        -7.5420   -4.1910    3.3270 hc        1 MOL      0.048658
    107 H48        -6.9200   -5.4920    4.2790 hc        1 MOL      0.048658
    108 H49        -7.7690   -4.2390    5.0780 hc        1 MOL      0.048658
    109 N10        -2.6680   -3.1760    3.2110 n         1 MOL     -0.233248
    110 C35        -1.2410   -2.8410    3.1190 c3        1 MOL     -0.002783
    111 C36        -0.7630   -3.2230    1.7000 c         1 MOL      0.745891
    112 O17        -1.4790   -3.6990    0.8480 o         1 MOL     -0.556847
    113 C37        -1.2820   -1.2920    3.4260 c3        1 MOL     -0.264216
    114 C38        -0.0010   -0.6370    3.9170 c         1 MOL      0.677600
    115 N11        -0.0040   -0.1400    5.1560 n         1 MOL     -0.824803
    116 O18         0.9670   -0.5000    3.1880 o         1 MOL     -0.526239
    117 H50        -3.2190   -2.5680    2.6240 hn        1 MOL      0.249858
    118 H51        -0.6150   -3.3710    3.8420 h1        1 MOL      0.094574
    119 H52        -2.0910   -1.0520    4.1200 hc        1 MOL      0.076685
    120 H53        -1.5280   -0.7590    2.5080 hc        1 MOL      0.076685
    121 H54        -0.8690   -0.1640    5.6670 hn        1 MOL      0.365709
    122 H55         0.8450    0.1030    5.6460 hn        1 MOL      0.365709
    123 N12         0.5760   -3.1170    1.5140 n         1 MOL     -0.665946
    124 C39         1.2440   -3.7960    0.3980 c3        1 MOL      0.040275
    125 C40         2.7580   -3.9050    0.6080 c         1 MOL      0.764562
    126 O19         3.3400   -3.1710    1.4730 o         1 MOL     -0.650441
    127 C41         0.9680   -3.0040   -0.8650 c3        1 MOL     -0.209067
    128 C42         1.9200   -1.8110   -1.1800 ca        1 MOL      0.151805
    129 C43         1.8470   -0.5890   -0.5300 ca        1 MOL     -0.238141
    130 C44         2.7750   -2.0100   -2.2820 ca        1 MOL     -0.238141
    131 C45         2.7850    0.4130   -0.9050 ca        1 MOL     -0.082726
    132 C46         3.5460   -0.9140   -2.6740 ca        1 MOL     -0.082726
    133 C47         3.5740    0.2930   -1.9650 ca        1 MOL      0.119396
    134 O20         4.3270    1.2810   -2.5140 oh        1 MOL     -0.556322
    135 H56         1.1480   -2.6420    2.1980 hn        1 MOL      0.330392
    136 H57         0.7710   -4.7710    0.3990 h1        1 MOL      0.099650
    137 H58        -0.0300   -2.5710   -0.8830 hc        1 MOL      0.098456
    138 H59         1.0600   -3.6160   -1.7610 hc        1 MOL      0.098456
    139 H60         1.1510   -0.4960    0.2960 ha        1 MOL      0.149440
    140 H61         2.8900   -2.9680   -2.7780 ha        1 MOL      0.149440
    141 H62         2.8300    1.3250   -0.3270 ha        1 MOL      0.082449
    142 H63         4.2420   -0.8320   -3.4930 ha        1 MOL      0.082449
    143 H64         4.4130    2.0020   -1.8920 ho        1 MOL      0.564946
    144 N13         3.4200   -4.8520   -0.0630 n         1 MOL     -0.824698
    145 C48         4.8430   -4.9740   -0.1290 c3        1 MOL      0.427189
    146 C49         5.5310   -4.5070   -1.4580 c         1 MOL      0.596116
    147 O21         5.2550   -5.1280   -2.4670 o         1 MOL     -0.584009
    148 C50         5.1870   -6.4560    0.1310 c3        1 MOL     -0.070512
    149 C51         6.6940   -6.6130    0.2490 c3        1 MOL     -0.109551
    150 C52         7.1760   -8.1050    0.2060 c         1 MOL      0.653952
    151 O22         7.3520   -8.6940   -0.8700 o         1 MOL     -0.667709
    152 O23         7.3330   -8.6710    1.3230 o         1 MOL     -0.667709
    153 H65         2.9130   -5.4960   -0.6520 hn        1 MOL      0.343162
    154 H66         5.3420   -4.4560    0.6840 h1        1 MOL      0.073344
    155 H67         4.8800   -7.0560   -0.7200 hc        1 MOL      0.015637
    156 H68         4.6850   -6.6790    1.0760 hc        1 MOL      0.015637
    157 H69         6.8670   -6.3270    1.2890 hc        1 MOL      0.015264
    158 H70         7.3070   -5.9880   -0.4020 hc        1 MOL      0.015264
    159 N14         6.3250   -3.4540   -1.5510 n         1 MOL     -0.632856
    160 C53         6.2620   -2.2830   -0.7050 c3        1 MOL      0.319511
    161 C54         6.8580   -2.5440    0.7210 c         1 MOL      0.319015
    162 O24         7.7140   -3.4250    0.8590 o         1 MOL     -0.534919
    163 C55         6.8510   -1.0040   -1.3850 c3        1 MOL      0.137022
    164 C56         8.2590   -0.6110   -1.0830 c3        1 MOL     -0.274327
    165 C57         8.7040    0.7470   -1.5580 c         1 MOL      0.846638
    166 O25         7.8920    1.6230   -1.8430 o         1 MOL     -0.778099
    167 O26         9.9150    1.0210   -1.6810 o         1 MOL     -0.778099
    168 H71         6.7380   -3.3280   -2.4680 hn        1 MOL      0.333788
    169 H72         5.2000   -2.0910   -0.5640 h1        1 MOL     -0.127353
    170 H73         6.1430   -0.2290   -1.0960 hc        1 MOL     -0.032208
    171 H74         6.8170   -1.1260   -2.4710 hc        1 MOL     -0.032208
    172 H75         8.8280   -1.4580   -1.4730 hc        1 MOL      0.044257
    173 H76         8.2410   -0.5890    0.0020 hc        1 MOL      0.044257
    174 N15         6.3260   -1.9730    1.7960 n         1 MOL     -0.058727
    175 C58         6.7650   -2.2740    3.2050 c3        1 MOL     -0.556284
    176 H77         7.7090   -2.8170    3.1830 h1        1 MOL      0.177247
    177 H78         6.8960   -1.3410    3.7530 h1        1 MOL      0.177247
    178 H79         6.0070   -2.8820    3.7000 h1        1 MOL      0.177247
    179 H80         5.6460   -1.2270    1.7690 hn        1 MOL      0.256384
    180 Ca1         7.0590    4.0830   -0.8750 Ca        1 MOL      1.611055
    181 O27         9.4350    4.2410    0.5820 oh        1 MOL     -0.723834
    182 H81         9.5100    3.7850    1.4170 ho        1 MOL      0.326897
    183 H82         9.8260    5.1020    0.7400 ho        1 MOL      0.326897
    184 O28         7.1260    2.3700    1.1910 oh        1 MOL     -0.723834
    185 H83         7.6070    2.5330    2.0030 ho        1 MOL      0.326897
    186 H84         6.4710    1.7200    1.4170 ho        1 MOL      0.326897
    187 O29         6.1290    4.3010   -3.3700 oh        1 MOL     -0.723834
    188 H85         5.3610    3.7920   -3.6020 ho        1 MOL      0.326897
    189 H86         6.7850    4.0540   -4.0220 ho        1 MOL      0.326897
    190 O30         8.0910    6.3760   -0.9230 oh        1 MOL     -0.723834
    191 H87         8.4460    6.4630   -0.0380 ho        1 MOL      0.326897
    192 H88         8.3740    7.1690   -1.3740 ho        1 MOL      0.326897
@<TRIPOS>BOND
     1    1    2 1   
     2    1    4 1   
     3    1    5 1   
     4    1    6 1   
     5    2    3 2   
     6    2    7 1   
     7    7    8 1   
     8    7   15 1   
     9    8    9 1   
    10    8   11 1   
    11    8   16 1   
    12    9   10 2   
    13    9   19 1   
    14   11   12 1   
    15   11   17 1   
    16   11   18 1   
    17   12   13 1   
    18   12   14 1   
    19   19   20 1   
    20   19   27 1   
    21   20   21 1   
    22   20   23 1   
    23   20   28 1   
    24   21   22 2   
    25   21   38 1   
    26   23   24 1   
    27   23   25 1   
    28   23   29 1   
    29   24   26 1   
    30   24   30 1   
    31   24   31 1   
    32   25   32 1   
    33   25   33 1   
    34   25   34 1   
    35   26   35 1   
    36   26   36 1   
    37   26   37 1   
    38   38   39 1   
    39   38   46 1   
    40   39   40 1   
    41   39   42 1   
    42   39   47 1   
    43   40   41 2   
    44   40   50 1   
    45   42   43 1   
    46   42   48 1   
    47   42   49 1   
    48   43   44 1   
    49   43   45 1   
    50   50   51 1   
    51   50   54 1   
    52   51   52 1   
    53   51   55 1   
    54   51   56 1   
    55   52   53 2   
    56   52   57 1   
    57   57   58 1   
    58   57   65 1   
    59   58   59 1   
    60   58   61 1   
    61   58   66 1   
    62   59   60 2   
    63   59   69 1   
    64   61   62 1   
    65   61   67 1   
    66   61   68 1   
    67   62   63 1   
    68   62   64 1   
    69   69   70 1   
    70   69   73 1   
    71   70   71 1   
    72   70   74 1   
    73   70   75 1   
    74   71   72 2   
    75   71   76 1   
    76   76   77 1   
    77   76   85 1   
    78   77   78 1   
    79   77   80 1   
    80   77   86 1   
    81   78   79 2   
    82   78   93 1   
    83   80   81 1   
    84   80   87 1   
    85   80   88 1   
    86   81   82 1   
    87   81   89 1   
    88   81   90 1   
    89   82   83 1   
    90   82   84 2   
    91   83   91 1   
    92   83   92 1   
    93   93   94 1   
    94   93  100 1   
    95   94   95 1   
    96   94   97 1   
    97   94  101 1   
    98   95   96 2   
    99   95  109 1   
   100   97   98 1   
   101   97   99 1   
   102   97  102 1   
   103   98  103 1   
   104   98  104 1   
   105   98  105 1   
   106   99  106 1   
   107   99  107 1   
   108   99  108 1   
   109  109  110 1   
   110  109  117 1   
   111  110  111 1   
   112  110  113 1   
   113  110  118 1   
   114  111  112 2   
   115  111  123 1   
   116  113  114 1   
   117  113  119 1   
   118  113  120 1   
   119  114  115 1   
   120  114  116 2   
   121  115  121 1   
   122  115  122 1   
   123  123  124 1   
   124  123  135 1   
   125  124  125 1   
   126  124  127 1   
   127  124  136 1   
   128  125  126 2   
   129  125  144 1   
   130  127  128 1   
   131  127  137 1   
   132  127  138 1   
   133  128  129 ar  
   134  128  130 ar  
   135  129  131 ar  
   136  129  139 1   
   137  130  132 ar  
   138  130  140 1   
   139  131  133 ar  
   140  131  141 1   
   141  132  133 ar  
   142  132  142 1   
   143  133  134 1   
   144  134  143 1   
   145  144  145 1   
   146  144  153 1   
   147  145  146 1   
   148  145  148 1   
   149  145  154 1   
   150  146  147 2   
   151  146  159 1   
   152  148  149 1   
   153  148  155 1   
   154  148  156 1   
   155  149  150 1   
   156  149  157 1   
   157  149  158 1   
   158  150  151 1   
   159  150  152 1   
   160  159  160 1   
   161  159  168 1   
   162  160  161 1   
   163  160  163 1   
   164  160  169 1   
   165  161  162 2   
   166  161  174 1   
   167  163  164 1   
   168  163  170 1   
   169  163  171 1   
   170  164  165 1   
   171  164  172 1   
   172  164  173 1   
   173  165  166 1   
   174  165  167 1   
   175  174  175 1   
   176  174  179 1   
   177  175  176 1   
   178  175  177 1   
   179  175  178 1   
   180  181  182 1   
   181  181  183 1   
   182  184  185 1   
   183  184  186 1   
   184  187  188 1   
   185  187  189 1   
   186  190  191 1   
   187  190  192 1   
@<TRIPOS>SUBSTRUCTURE
     1 MOL         1 TEMP              0 ****  ****    0 ROOT
