@<TRIPOS>MOLECULE
MOL
  181   177     1     0     0
SMALL
resp


@<TRIPOS>ATOM
      1 C1         11.1090   -3.9340   -4.2050 c3        1 MOL     -0.366226
      2 C2         10.1720   -2.7640   -3.9410 c         1 MOL      0.719250
      3 O1          9.7320   -2.0420   -4.8020 o         1 MOL     -0.586542
      4 H1         11.8620   -3.6380   -4.9340 hc        1 MOL      0.083329
      5 H2         11.5980   -4.2260   -3.2760 hc        1 MOL      0.083329
      6 H3         10.5370   -4.7770   -4.5960 hc        1 MOL      0.083329
      7 N1         10.0010   -2.3870   -2.6750 n         1 MOL     -0.513587
      8 C3         10.4410   -2.8970   -1.3270 c3        1 MOL      0.168838
      9 C4         10.7960   -1.7700   -0.3950 c         1 MOL      0.361612
     10 O2         10.8130   -0.6240   -0.8740 o         1 MOL     -0.411262
     11 C5          9.2660   -3.7290   -0.7270 c3        1 MOL     -0.262843
     12 C6          8.0260   -2.8640   -0.6800 c         1 MOL      0.701299
     13 O3          7.7650   -2.3840    0.4490 o         1 MOL     -0.727709
     14 O4          7.2530   -2.6630   -1.6400 o         1 MOL     -0.727709
     15 H4          9.4780   -1.5220   -2.6490 hn        1 MOL      0.317918
     16 H5         11.3100   -3.5450   -1.4690 h1        1 MOL      0.043557
     17 H6          9.6180   -4.2380    0.1620 hc        1 MOL      0.054145
     18 H7          9.1970   -4.5490   -1.4390 hc        1 MOL      0.054145
     19 N2         11.0470   -1.9760    0.9160 n         1 MOL     -0.502600
     20 C7         11.2820   -0.9210    1.8500 c3        1 MOL      0.472959
     21 C8         10.3940    0.3370    1.6770 c         1 MOL      0.231913
     22 O5         10.9120    1.4430    1.6530 o         1 MOL     -0.500030
     23 C9         12.7790   -0.7290    1.9770 c3        1 MOL     -0.391620
     24 H8         10.9490   -2.9100    1.2880 hn        1 MOL      0.270707
     25 H9         11.0150   -1.2650    2.8490 h1        1 MOL     -0.037057
     26 H10        12.9960   -0.1830    2.8960 hc        1 MOL      0.087997
     27 H11        13.3200   -1.6740    1.9980 hc        1 MOL      0.087997
     28 H12        13.0370   -0.1560    1.0840 hc        1 MOL      0.087997
     29 N3          9.1140    0.1870    1.5450 n         1 MOL      0.071573
     30 C10         8.1490    1.2470    1.8720 c3        1 MOL     -0.174923
     31 C11         6.9120    0.7120    2.4300 c         1 MOL      0.450025
     32 O6          6.6050   -0.4670    2.2570 o         1 MOL     -0.499175
     33 C12         7.8560    2.2070    0.7170 c3        1 MOL     -0.163045
     34 C13         7.5530    1.6200   -0.7160 c         1 MOL      0.635471
     35 O7          7.8740    2.3340   -1.7160 o         1 MOL     -0.655547
     36 O8          6.8010    0.6070   -0.8830 o         1 MOL     -0.655547
     37 H13         8.8710   -0.7820    1.6850 hn        1 MOL      0.088432
     38 H14         8.6110    1.8840    2.6280 h1        1 MOL      0.058176
     39 H15         8.8390    2.6760    0.5530 hc        1 MOL      0.069246
     40 H16         7.1550    3.0070    0.9240 hc        1 MOL      0.069246
     41 N4          6.0720    1.5580    3.0930 n         1 MOL     -0.339084
     42 C14         4.7800    1.1590    3.5740 c3        1 MOL     -0.262426
     43 C15         3.7570    0.9950    2.4090 c         1 MOL      0.776890
     44 O9          4.1320    0.6130    1.3170 o         1 MOL     -0.622090
     45 H17         6.3070    2.5470    3.1480 hn        1 MOL      0.299257
     46 H18         4.3730    1.8980    4.2630 h1        1 MOL      0.112994
     47 H19         4.8840    0.2010    4.0800 h1        1 MOL      0.112994
     48 N5          2.4600    1.3480    2.5370 n         1 MOL     -0.667247
     49 C16         1.3920    1.3490    1.4570 c3        1 MOL      0.151687
     50 C17         0.5140    2.5870    1.4570 c         1 MOL      0.577399
     51 O10        -0.3860    2.6510    2.3070 o         1 MOL     -0.546186
     52 C18         0.5940    0.0420    1.5650 c3        1 MOL     -0.209750
     53 C19        -0.0680   -0.2680    0.2420 c         1 MOL      0.357964
     54 N6         -1.2950   -0.6090    0.2530 n         1 MOL     -0.304375
     55 O11         0.5230   -0.2700   -0.8220 o         1 MOL     -0.492225
     56 H20         2.1030    1.5960    3.4460 hn        1 MOL      0.315095
     57 H21         1.9450    1.2990    0.5230 h1        1 MOL      0.058972
     58 H22        -0.1590    0.0910    2.3490 hc        1 MOL      0.083668
     59 H23         1.2880   -0.7270    1.9140 hc        1 MOL      0.083668
     60 H24        -1.8080   -0.7380    1.1070 hn        1 MOL      0.228322
     61 H25        -1.6310   -0.8090   -0.6810 hn        1 MOL      0.228322
     62 N7          0.6360    3.3950    0.3650 n         1 MOL     -0.514718
     63 C20        -0.2600    4.5050    0.0390 c3        1 MOL      0.060267
     64 C21        -0.0160    5.0260   -1.3560 c         1 MOL      0.595661
     65 O12         0.9130    4.5490   -1.9440 o         1 MOL     -0.550348
     66 H26         1.1650    3.1460   -0.4550 hn        1 MOL      0.326013
     67 H27         0.0780    5.3230    0.6820 h1        1 MOL      0.061510
     68 H28        -1.2500    4.1250    0.2550 h1        1 MOL      0.061510
     69 N8         -0.7940    5.9670   -1.8230 n         1 MOL     -0.367346
     70 C22        -1.8170    6.7550   -1.0840 c3        1 MOL     -0.303395
     71 C23        -3.0590    5.9140   -0.6700 c         1 MOL      0.606276
     72 O13        -3.7380    6.2800    0.2510 o         1 MOL     -0.572976
     73 C24        -2.2470    7.9570   -2.0100 c3        1 MOL      0.500322
     74 C25        -1.1230    8.9110   -2.2400 c3        1 MOL     -0.414698
     75 O14        -2.7930    7.5710   -3.2230 oh        1 MOL     -0.601177
     76 H29        -0.6490    6.2020   -2.7960 hn        1 MOL      0.231475
     77 H30        -1.3830    7.1350   -0.1610 h1        1 MOL      0.121938
     78 H31        -3.0770    8.3900   -1.4510 h1        1 MOL      0.019685
     79 H32        -2.0000    7.4250   -3.7450 ho        1 MOL      0.385104
     80 H33        -1.3040    9.3710   -3.2140 hc        1 MOL      0.096150
     81 H34        -1.0670    9.6590   -1.4490 hc        1 MOL      0.096150
     82 H35        -0.1620    8.4190   -2.1710 hc        1 MOL      0.096150
     83 N9         -3.2840    4.7740   -1.2730 n         1 MOL     -0.400303
     84 C26        -3.9780    3.6510   -0.7120 c3        1 MOL      0.045458
     85 C27        -3.1440    2.3920   -0.6250 c         1 MOL      0.374439
     86 O15        -2.1260    2.2460   -1.2380 o         1 MOL     -0.518091
     87 C28        -5.2440    3.4610   -1.6050 c3        1 MOL      0.289145
     88 C29        -5.0280    3.3820   -3.1910 c3        1 MOL      0.122991
     89 C30        -6.3080    4.5920   -1.3240 c3        1 MOL     -0.444671
     90 C31        -6.1910    2.5460   -3.8280 c3        1 MOL     -0.224858
     91 H36        -2.7030    4.6000   -2.0840 hn        1 MOL      0.206176
     92 H37        -4.2080    3.8110    0.3450 h1        1 MOL      0.136452
     93 H38        -5.6310    2.4880   -1.2760 hc        1 MOL     -0.050443
     94 H39        -4.0530    2.9610   -3.4090 hc        1 MOL     -0.023213
     95 H40        -5.0000    4.3950   -3.6160 hc        1 MOL     -0.023213
     96 H41        -6.4560    4.5910   -0.2400 hc        1 MOL      0.100194
     97 H42        -5.9730    5.5390   -1.7560 hc        1 MOL      0.100194
     98 H43        -7.2640    4.2660   -1.7330 hc        1 MOL      0.100194
     99 H44        -6.4490    1.6920   -3.1960 hc        1 MOL      0.041452
    100 H45        -7.0970    3.1040   -4.0710 hc        1 MOL      0.041452
    101 H46        -5.8570    2.0140   -4.7120 hc        1 MOL      0.041452
    102 N10        -3.4680    1.4170    0.1960 n         1 MOL     -0.097124
    103 C32        -4.5140    1.4060    1.1720 c3        1 MOL     -0.006700
    104 C33        -5.1750   -0.0270    1.3550 c         1 MOL      0.403008
    105 O16        -4.3440   -0.9590    1.3220 o         1 MOL     -0.403078
    106 C34        -3.9700    1.9190    2.5160 c3        1 MOL     -0.198206
    107 C35        -5.0450    2.2420    3.5670 c         1 MOL      0.825708
    108 O17        -4.6700    2.7720    4.6330 o         1 MOL     -0.741689
    109 O18        -6.2730    2.0950    3.3590 o         1 MOL     -0.741689
    110 H47        -2.8880    0.5900    0.1510 hn        1 MOL      0.146811
    111 H48        -5.3180    2.0750    0.8460 h1        1 MOL     -0.024565
    112 H49        -3.4790    2.8600    2.3250 hc        1 MOL      0.048540
    113 H50        -3.1760    1.2560    2.8500 hc        1 MOL      0.048540
    114 N11        -6.4360   -0.2130    1.6950 n         1 MOL     -0.303535
    115 C36        -7.1910   -1.5160    1.7800 c3        1 MOL      0.245998
    116 C37        -8.5680   -1.4990    1.0970 c         1 MOL      0.173729
    117 O19        -9.1850   -0.4220    1.0780 o         1 MOL     -0.482778
    118 C38        -7.3340   -2.0820    3.2280 c3        1 MOL     -0.172457
    119 C39        -6.0500   -2.3290    3.9930 ca        1 MOL     -0.006585
    120 C40        -5.4820   -3.5940    3.9650 ca        1 MOL     -0.074456
    121 C41        -5.5000   -1.2890    4.7060 ca        1 MOL     -0.074456
    122 C42        -4.4270   -3.8480    4.8740 ca        1 MOL     -0.146886
    123 C43        -4.2630   -1.4470    5.3530 ca        1 MOL     -0.146886
    124 C44        -3.6910   -2.7430    5.3540 ca        1 MOL     -0.130674
    125 H51        -7.0240    0.5960    1.8360 hn        1 MOL      0.253496
    126 H52        -6.6600   -2.3370    1.2970 h1        1 MOL      0.025833
    127 H53        -7.8060   -3.0650    3.1900 hc        1 MOL      0.065218
    128 H54        -7.9530   -1.3990    3.8060 hc        1 MOL      0.065218
    129 H55        -6.0550   -4.3730    3.4850 ha        1 MOL      0.096853
    130 H56        -6.0120   -0.3360    4.6790 ha        1 MOL      0.096853
    131 H57        -4.0750   -4.8580    5.0480 ha        1 MOL      0.102502
    132 H58        -3.8430   -0.5790    5.8440 ha        1 MOL      0.102502
    133 H59        -2.7190   -2.7800    5.8230 ha        1 MOL      0.104797
    134 N12        -9.1230   -2.6100    0.6170 n         1 MOL      0.178189
    135 C45        -8.5680   -3.8640    0.3660 c3        1 MOL     -0.055972
    136 C46        -7.4640   -3.9690   -0.7680 c         1 MOL      0.342965
    137 O20        -6.6810   -4.9480   -0.7210 o         1 MOL     -0.539573
    138 C47        -9.7310   -4.8690    0.0470 c3        1 MOL     -0.442531
    139 C48       -10.9460   -4.0510    0.3600 c3        1 MOL      0.241349
    140 C49       -10.5160   -2.6380    0.2370 c3        1 MOL     -0.385165
    141 H60        -8.0430   -4.1760    1.2650 h1        1 MOL      0.104801
    142 H61        -9.7420   -5.2330   -0.9760 hc        1 MOL      0.145317
    143 H62        -9.6600   -5.7020    0.7490 hc        1 MOL      0.145317
    144 H63       -11.7970   -4.3320   -0.2720 hc        1 MOL     -0.015700
    145 H64       -11.3240   -4.3020    1.3480 hc        1 MOL     -0.015700
    146 H65       -10.6490   -2.3390   -0.8070 h1        1 MOL      0.134215
    147 H66       -11.0110   -1.9180    0.8870 h1        1 MOL      0.134215
    148 N13        -7.3260   -3.0230   -1.6460 n         1 MOL     -0.113143
    149 C50        -6.5770   -3.0630   -2.9130 c3        1 MOL      0.121630
    150 C51        -7.4420   -3.4570   -4.1420 c         1 MOL      0.301914
    151 O21        -8.1730   -2.6480   -4.6500 o         1 MOL     -0.536428
    152 C52        -5.8570   -1.7640   -3.2120 c3        1 MOL      0.013778
    153 C53        -4.8490   -1.2830   -2.0960 c3        1 MOL      0.021356
    154 C54        -3.5310   -2.0880   -1.9280 c         1 MOL      0.506114
    155 O22        -2.3980   -1.5520   -2.1940 o         1 MOL     -0.643804
    156 O23        -3.5250   -3.2050   -1.3490 o         1 MOL     -0.643804
    157 H67        -7.9190   -2.2160   -1.4970 hn        1 MOL      0.184148
    158 H68        -5.8320   -3.8490   -2.7830 h1        1 MOL      0.083747
    159 H69        -6.6030   -0.9810   -3.2740 hc        1 MOL      0.021888
    160 H70        -5.2950   -1.9040   -4.1400 hc        1 MOL      0.021888
    161 H71        -5.2770   -1.2970   -1.1010 hc        1 MOL     -0.063700
    162 H72        -4.6220   -0.2630   -2.4170 hc        1 MOL     -0.063700
    163 N14        -7.4480   -4.7100   -4.6360 n         1 MOL     -0.289647
    164 C55        -6.7490   -5.9400   -4.1640 c3        1 MOL     -0.109255
    165 H73        -7.4800   -6.6400   -3.7590 h1        1 MOL      0.069740
    166 H74        -6.2260   -6.4060   -5.0000 h1        1 MOL      0.069740
    167 H75        -6.0310   -5.6750   -3.3870 h1        1 MOL      0.069740
    168 H76        -7.9560   -4.8620   -5.4860 hn        1 MOL      0.257694
    169 Ca1         5.3990   -1.4300   -0.0520 Ca        1 MOL      1.722239
    170 O24         4.3300   -3.7710   -0.9150 oh        1 MOL     -0.783507
    171 H77         3.5070   -4.1600   -1.2130 ho        1 MOL      0.392131
    172 H78         4.7120   -4.4360   -0.3460 ho        1 MOL      0.392131
    173 O25         4.3400   -0.6240   -2.4780 oh        1 MOL     -0.783507
    174 H79         3.8280   -0.9950   -3.1970 ho        1 MOL      0.392131
    175 H80         4.9350    0.0040   -2.8960 ho        1 MOL      0.392131
    176 O26         2.7830   -1.6090    0.0620 oh        1 MOL     -0.783507
    177 H81         2.2090   -2.3460    0.2820 ho        1 MOL      0.392131
    178 H82         2.2870   -1.1090   -0.5930 ho        1 MOL      0.392131
    179 O27         4.9970   -3.1040    1.9670 oh        1 MOL     -0.783507
    180 H83         4.3940   -2.8510    2.6580 ho        1 MOL      0.392131
    181 H84         5.2300   -4.0110    2.1720 ho        1 MOL      0.392131
@<TRIPOS>BOND
     1    1    2 1   
     2    1    4 1   
     3    1    5 1   
     4    1    6 1   
     5    2    3 2   
     6    2    7 1   
     7    7    8 1   
     8    7   15 1   
     9    8    9 1   
    10    8   11 1   
    11    8   16 1   
    12    9   10 2   
    13    9   19 1   
    14   11   12 1   
    15   11   17 1   
    16   11   18 1   
    17   12   13 1   
    18   12   14 1   
    19   19   20 1   
    20   19   24 1   
    21   20   21 1   
    22   20   23 1   
    23   20   25 1   
    24   21   22 2   
    25   21   29 1   
    26   23   26 1   
    27   23   27 1   
    28   23   28 1   
    29   29   30 1   
    30   29   37 1   
    31   30   31 1   
    32   30   33 1   
    33   30   38 1   
    34   31   32 2   
    35   31   41 1   
    36   33   34 1   
    37   33   39 1   
    38   33   40 1   
    39   34   35 1   
    40   34   36 1   
    41   41   42 1   
    42   41   45 1   
    43   42   43 1   
    44   42   46 1   
    45   42   47 1   
    46   43   44 2   
    47   43   48 1   
    48   48   49 1   
    49   48   56 1   
    50   49   50 1   
    51   49   52 1   
    52   49   57 1   
    53   50   51 2   
    54   50   62 1   
    55   52   53 1   
    56   52   58 1   
    57   52   59 1   
    58   53   54 1   
    59   53   55 2   
    60   54   60 1   
    61   54   61 1   
    62   62   63 1   
    63   62   66 1   
    64   63   64 1   
    65   63   67 1   
    66   63   68 1   
    67   64   65 2   
    68   64   69 1   
    69   69   70 1   
    70   69   76 1   
    71   70   71 1   
    72   70   73 1   
    73   70   77 1   
    74   71   72 2   
    75   71   83 1   
    76   73   74 1   
    77   73   75 1   
    78   73   78 1   
    79   74   80 1   
    80   74   81 1   
    81   74   82 1   
    82   75   79 1   
    83   83   84 1   
    84   83   91 1   
    85   84   85 1   
    86   84   87 1   
    87   84   92 1   
    88   85   86 2   
    89   85  102 1   
    90   87   88 1   
    91   87   89 1   
    92   87   93 1   
    93   88   90 1   
    94   88   94 1   
    95   88   95 1   
    96   89   96 1   
    97   89   97 1   
    98   89   98 1   
    99   90   99 1   
   100   90  100 1   
   101   90  101 1   
   102  102  103 1   
   103  102  110 1   
   104  103  104 1   
   105  103  106 1   
   106  103  111 1   
   107  104  105 2   
   108  104  114 1   
   109  106  107 1   
   110  106  112 1   
   111  106  113 1   
   112  107  108 1   
   113  107  109 1   
   114  114  115 1   
   115  114  125 1   
   116  115  116 1   
   117  115  118 1   
   118  115  126 1   
   119  116  117 2   
   120  116  134 1   
   121  118  119 1   
   122  118  127 1   
   123  118  128 1   
   124  119  120 ar  
   125  119  121 ar  
   126  120  122 ar  
   127  120  129 1   
   128  121  123 ar  
   129  121  130 1   
   130  122  124 ar  
   131  122  131 1   
   132  123  124 ar  
   133  123  132 1   
   134  124  133 1   
   135  134  135 1   
   136  134  140 1   
   137  135  136 1   
   138  135  138 1   
   139  135  141 1   
   140  136  137 2   
   141  136  148 1   
   142  138  139 1   
   143  138  142 1   
   144  138  143 1   
   145  139  140 1   
   146  139  144 1   
   147  139  145 1   
   148  140  146 1   
   149  140  147 1   
   150  148  149 1   
   151  148  157 1   
   152  149  150 1   
   153  149  152 1   
   154  149  158 1   
   155  150  151 2   
   156  150  163 1   
   157  152  153 1   
   158  152  159 1   
   159  152  160 1   
   160  153  154 1   
   161  153  161 1   
   162  153  162 1   
   163  154  155 1   
   164  154  156 1   
   165  163  164 1   
   166  163  168 1   
   167  164  165 1   
   168  164  166 1   
   169  164  167 1   
   170  170  171 1   
   171  170  172 1   
   172  173  174 1   
   173  173  175 1   
   174  176  177 1   
   175  176  178 1   
   176  179  180 1   
   177  179  181 1   
@<TRIPOS>SUBSTRUCTURE
     1 MOL         1 TEMP              0 ****  ****    0 ROOT
