@<TRIPOS>MOLECULE
MOL
  195   189     1     0     0
SMALL
resp


@<TRIPOS>ATOM
      1 C1          3.4860   -2.4510   -2.9410 c3        1 MOL     -0.471949
      2 C2          2.6270   -3.1990   -1.9310 c         1 MOL      0.680483
      3 O1          1.5700   -2.6750   -1.5230 o         1 MOL     -0.518699
      4 H1          3.6840   -1.4440   -2.5730 hc        1 MOL      0.114337
      5 H2          4.4300   -2.9790   -3.0790 hc        1 MOL      0.114337
      6 H3          2.9610   -2.3920   -3.8940 hc        1 MOL      0.114337
      7 N1          3.0800   -4.3910   -1.4330 n         1 MOL     -0.309256
      8 C3          2.4150   -5.2050   -0.3590 c3        1 MOL     -0.354269
      9 C4          0.9050   -5.4710   -0.5440 c         1 MOL      0.865701
     10 O2          0.2510   -5.9080    0.4270 o         1 MOL     -0.566795
     11 C5          2.8310   -4.7890    1.1380 c3        1 MOL     -0.321878
     12 C6          4.3380   -4.6010    1.3040 c         1 MOL      0.796697
     13 O3          5.1290   -5.3490    0.6590 o         1 MOL     -0.754830
     14 O4          4.7860   -3.6550    2.0270 o         1 MOL     -0.754830
     15 H4          3.9790   -4.7830   -1.7040 hn        1 MOL      0.205898
     16 H5          2.9530   -6.1490   -0.4150 h1        1 MOL      0.153432
     17 H6          2.5090   -5.4910    1.9100 hc        1 MOL      0.145593
     18 H7          2.3790   -3.8320    1.3900 hc        1 MOL      0.145593
     19 N2          0.3400   -5.3150   -1.7650 n         1 MOL     -0.710488
     20 C7         -1.0950   -5.5090   -2.0440 c3        1 MOL      0.023525
     21 C8         -1.6230   -6.8500   -1.4160 c         1 MOL      0.516457
     22 O5         -0.9750   -7.8530   -1.6100 o         1 MOL     -0.561552
     23 C9         -1.4210   -5.5270   -3.5560 c3        1 MOL      0.359513
     24 C10        -0.4480   -6.3500   -4.4170 c3        1 MOL      0.017565
     25 C11        -1.6510   -4.1420   -4.1720 c3        1 MOL     -0.359465
     26 C12        -1.1360   -6.9070   -5.6650 c3        1 MOL     -0.114796
     27 H8          0.9720   -5.0240   -2.4940 hn        1 MOL      0.268976
     28 H9         -1.5490   -4.5800   -1.7110 h1        1 MOL      0.157305
     29 H10        -2.3450   -6.0820   -3.6900 hc        1 MOL     -0.000723
     30 H11        -0.2730   -7.2530   -3.8410 hc        1 MOL     -0.010346
     31 H12         0.4280   -5.7580   -4.6910 hc        1 MOL     -0.010346
     32 H13        -1.7800   -4.2070   -5.2500 hc        1 MOL      0.073004
     33 H14        -2.5840   -3.7500   -3.7660 hc        1 MOL      0.073004
     34 H15        -0.8340   -3.4580   -3.9420 hc        1 MOL      0.073004
     35 H16        -2.0020   -7.5110   -5.3980 hc        1 MOL      0.008501
     36 H17        -1.5440   -6.0510   -6.1980 hc        1 MOL      0.008501
     37 H18        -0.3870   -7.4460   -6.2480 hc        1 MOL      0.008501
     38 N3         -2.8090   -6.8500   -0.7900 n         1 MOL     -0.396737
     39 C13        -3.6650   -5.7660   -0.5390 c3        1 MOL     -0.174662
     40 C14        -4.2580   -5.9750    0.8550 c         1 MOL      0.771131
     41 O6         -4.5880   -7.0830    1.1430 o         1 MOL     -0.604886
     42 C15        -4.7020   -5.5770   -1.6290 c3        1 MOL     -0.181650
     43 C16        -5.5160   -4.2980   -1.5190 c         1 MOL      0.720165
     44 O7         -5.2520   -3.3640   -0.6590 o         1 MOL     -0.706263
     45 O8         -6.4550   -4.2150   -2.2840 o         1 MOL     -0.706263
     46 H19        -3.1790   -7.6790   -0.3460 hn        1 MOL      0.282500
     47 H20        -3.1130   -4.8290   -0.4180 h1        1 MOL      0.020041
     48 H21        -5.3540   -6.4520   -1.6330 hc        1 MOL      0.047281
     49 H22        -4.2130   -5.6550   -2.6030 hc        1 MOL      0.047281
     50 N4         -4.3200   -4.9490    1.6840 n         1 MOL     -0.360131
     51 C17        -4.9860   -5.0570    2.9840 c3        1 MOL     -0.355757
     52 C18        -5.4930   -3.6970    3.4170 c         1 MOL      0.642835
     53 O9         -6.5130   -3.7210    4.1670 o         1 MOL     -0.603107
     54 H23        -4.0090   -4.0480    1.3640 hn        1 MOL      0.241684
     55 H24        -4.3630   -5.4800    3.7750 h1        1 MOL      0.151155
     56 H25        -5.9190   -5.6010    2.8470 h1        1 MOL      0.151155
     57 N5         -4.9300   -2.5860    3.0050 n         1 MOL     -0.456776
     58 C19        -5.3660   -1.2250    3.3860 c3        1 MOL      0.104220
     59 C20        -6.3790   -0.7190    2.3470 c         1 MOL      0.512970
     60 O10        -7.3770   -0.2110    2.7810 o         1 MOL     -0.538872
     61 C21        -4.2220   -0.2330    3.5890 c3        1 MOL     -0.221077
     62 C22        -3.4270    0.0790    2.3330 c         1 MOL      0.729295
     63 O11        -2.3270   -0.4660    2.1420 o         1 MOL     -0.707367
     64 O12        -3.9290    0.9580    1.5840 o         1 MOL     -0.707367
     65 H26        -4.0570   -2.7800    2.5490 hn        1 MOL      0.291083
     66 H27        -5.9710   -1.2980    4.2900 h1        1 MOL      0.049388
     67 H28        -3.5590   -0.6610    4.3400 hc        1 MOL      0.040865
     68 H29        -4.7170    0.6870    3.8830 hc        1 MOL      0.040865
     69 N6         -6.2470   -0.9150    1.0190 n         1 MOL     -0.181385
     70 C23        -7.1800   -0.3760    0.0340 c3        1 MOL     -0.341263
     71 C24        -7.2360    1.1260   -0.1250 c         1 MOL      0.702269
     72 O13        -8.0750    1.6600   -0.8680 o         1 MOL     -0.630333
     73 H30        -5.4400   -1.3940    0.6480 hn        1 MOL      0.237896
     74 H31        -8.1730   -0.6760    0.3550 h1        1 MOL      0.143114
     75 H32        -6.8350   -0.7580   -0.9340 h1        1 MOL      0.143114
     76 N7         -6.4400    1.8410    0.6590 n         1 MOL     -0.349042
     77 C25        -6.5030    3.3400    0.8350 c3        1 MOL      0.008227
     78 C26        -6.3440    4.1490   -0.4820 c         1 MOL      0.397524
     79 O14        -6.7190    5.2930   -0.5680 o         1 MOL     -0.522136
     80 C27        -7.7300    3.6590    1.6780 c3        1 MOL      0.057488
     81 C28        -7.4890    3.1480    3.1910 c3        1 MOL     -0.200648
     82 C29        -8.8880    2.8650    3.8060 c         1 MOL      0.606088
     83 N8         -9.3060    1.6130    3.7400 n         1 MOL     -0.742224
     84 O15        -9.6200    3.7110    4.2660 o         1 MOL     -0.605726
     85 H33        -5.9260    1.4360    1.4230 hn        1 MOL      0.205677
     86 H34        -5.6960    3.5950    1.5180 h1        1 MOL      0.102171
     87 H35        -8.6150    3.1680    1.2740 hc        1 MOL      0.020689
     88 H36        -7.8890    4.7430    1.6750 hc        1 MOL      0.020689
     89 H37        -6.9110    3.8180    3.8200 hc        1 MOL      0.058759
     90 H38        -6.9710    2.1860    3.1090 hc        1 MOL      0.058759
     91 H39        -8.7670    0.9060    3.2570 hn        1 MOL      0.335353
     92 H40       -10.3060    1.4940    3.8600 hn        1 MOL      0.335353
     93 N9         -5.7160    3.6000   -1.5020 n         1 MOL     -0.162724
     94 C30        -5.3420    4.3060   -2.7750 c3        1 MOL     -0.120503
     95 C31        -3.8000    4.3380   -3.1260 c         1 MOL      0.428422
     96 O16        -3.4360    5.0090   -4.0970 o         1 MOL     -0.557713
     97 C32        -6.0140    3.6610   -4.0390 c3        1 MOL      0.300022
     98 C33        -5.9320    2.1260   -4.1930 c3        1 MOL     -0.348818
     99 C34        -7.4890    4.0390   -4.0200 c3        1 MOL     -0.348818
    100 H41        -5.4930    2.6210   -1.4150 hn        1 MOL      0.193015
    101 H42        -5.6230    5.3550   -2.7800 h1        1 MOL      0.119665
    102 H43        -5.5750    4.0020   -4.9830 hc        1 MOL     -0.013314
    103 H44        -6.5840    1.6050   -3.5000 hc        1 MOL      0.080309
    104 H45        -6.2890    1.9260   -5.2020 hc        1 MOL      0.080309
    105 H46        -4.9100    1.7500   -4.1440 hc        1 MOL      0.080309
    106 H47        -7.6450    5.1140   -4.1570 hc        1 MOL      0.080309
    107 H48        -7.8760    3.4720   -4.8660 hc        1 MOL      0.080309
    108 H49        -7.8810    3.6170   -3.0930 hc        1 MOL      0.080309
    109 N10        -2.9630    3.5270   -2.4360 n         1 MOL     -0.276149
    110 C35        -1.5360    3.3400   -2.6280 c3        1 MOL      0.320385
    111 C36        -0.8440    3.5810   -1.3150 c         1 MOL      0.412110
    112 O17        -1.5190    3.7980   -0.2590 o         1 MOL     -0.508162
    113 C37        -1.2630    1.9870   -3.3260 c3        1 MOL     -0.203750
    114 C38         0.2140    1.7760   -3.5200 c         1 MOL      0.636932
    115 N11         0.9340    1.1200   -2.6480 n         1 MOL     -0.800531
    116 O18         0.8000    2.2840   -4.4400 o         1 MOL     -0.583608
    117 H50        -3.3490    3.2260   -1.5560 hn        1 MOL      0.147453
    118 H51        -1.1150    4.0400   -3.3560 h1        1 MOL      0.007351
    119 H52        -1.7540    1.9130   -4.2890 hc        1 MOL      0.058415
    120 H53        -1.6270    1.1550   -2.7140 hc        1 MOL      0.058415
    121 H54         0.3590    0.7720   -1.8910 hn        1 MOL      0.382152
    122 H55         1.9260    1.0390   -2.8440 hn        1 MOL      0.382152
    123 N12         0.4900    3.6800   -1.1970 n         1 MOL     -0.414444
    124 C39         1.2210    3.8890    0.0830 c3        1 MOL      0.043394
    125 C40         2.6360    4.2150   -0.2830 c         1 MOL      0.505892
    126 O19         3.1210    3.7840   -1.3190 o         1 MOL     -0.539876
    127 C41         1.1720    2.6610    0.9640 c3        1 MOL     -0.476454
    128 C42         1.8230    2.7050    2.3450 ca        1 MOL      0.264536
    129 C43         3.1860    2.3810    2.4860 ca        1 MOL     -0.274434
    130 C44         1.1300    3.1940    3.4340 ca        1 MOL     -0.274434
    131 C45         3.7510    2.4820    3.7980 ca        1 MOL     -0.170024
    132 C46         1.6650    3.3070    4.7420 ca        1 MOL     -0.170024
    133 C47         2.9930    2.8790    4.9140 ca        1 MOL      0.249768
    134 O20         3.5150    2.8770    6.1520 oh        1 MOL     -0.479547
    135 H56         1.0400    3.4770   -2.0190 hn        1 MOL      0.263288
    136 H57         0.7090    4.7350    0.5450 h1        1 MOL      0.101687
    137 H58         1.5390    1.8460    0.3350 hc        1 MOL      0.193995
    138 H59         0.1440    2.4340    1.2420 hc        1 MOL      0.193995
    139 H60         3.8160    2.1440    1.6340 ha        1 MOL      0.176412
    140 H61         0.1280    3.5820    3.3610 ha        1 MOL      0.176412
    141 H62         4.7770    2.1730    3.8580 ha        1 MOL      0.132064
    142 H63         1.1270    3.7660    5.5490 ha        1 MOL      0.132064
    143 H64         4.4650    2.7950    6.0490 ho        1 MOL      0.349366
    144 N13         3.3470    5.0050    0.4570 n         1 MOL     -0.335918
    145 C48         4.7450    5.4880    0.3350 c3        1 MOL      0.234249
    146 C49         5.5690    4.7550    1.3150 c         1 MOL      0.315228
    147 O21         5.7670    5.2630    2.4170 o         1 MOL     -0.534522
    148 C50         4.8630    6.9870    0.4400 c3        1 MOL      0.091043
    149 C51         3.8860    7.6010   -0.6520 c3        1 MOL     -0.272162
    150 C52         4.1200    9.1590   -0.6790 c         1 MOL      0.680182
    151 O22         4.6990    9.7220   -1.6260 o         1 MOL     -0.680787
    152 O23         3.8850    9.8050    0.3880 o         1 MOL     -0.680787
    153 H65         2.9720    5.3400    1.3340 hn        1 MOL      0.242968
    154 H66         5.0560    5.2200   -0.6780 h1        1 MOL      0.063029
    155 H67         5.8850    7.3230    0.2440 hc        1 MOL      0.013694
    156 H68         4.5830    7.2830    1.4450 hc        1 MOL      0.013694
    157 H69         2.8570    7.3470   -0.3970 hc        1 MOL      0.031210
    158 H70         3.9990    7.1710   -1.6490 hc        1 MOL      0.031210
    159 N14         6.1650    3.6190    0.9100 n         1 MOL     -0.181335
    160 C53         6.0350    2.8120   -0.2690 c3        1 MOL     -0.577438
    161 C54         6.5050    3.4500   -1.5420 c         1 MOL      0.586956
    162 O24         7.3990    4.3230   -1.6080 o         1 MOL     -0.536193
    163 C55         6.8800    1.5210   -0.0300 c3        1 MOL      0.394208
    164 C56         6.4330    0.3080   -0.9130 c3        1 MOL     -0.302321
    165 C57         7.0660   -0.9750   -0.6160 c         1 MOL      0.897264
    166 O25         8.2680   -1.0120   -0.6980 o         1 MOL     -0.762760
    167 O26         6.3490   -1.9590   -0.1910 o         1 MOL     -0.762760
    168 H71         6.8150    3.3040    1.6160 hn        1 MOL      0.208227
    169 H72         4.9920    2.5120   -0.3770 h1        1 MOL      0.183880
    170 H73         6.7120    1.2340    1.0050 hc        1 MOL     -0.016342
    171 H74         7.9350    1.7270   -0.1970 hc        1 MOL     -0.016342
    172 H75         6.7360    0.4940   -1.9470 hc        1 MOL      0.012293
    173 H76         5.3410    0.3160   -0.8730 hc        1 MOL      0.012293
    174 N15         5.7340    3.1140   -2.6290 n         1 MOL     -0.241532
    175 C58         5.8450    3.7630   -3.9290 c3        1 MOL     -0.168020
    176 H77         6.3870    4.7020   -3.8210 h1        1 MOL      0.082455
    177 H78         6.3830    3.1110   -4.6170 h1        1 MOL      0.082455
    178 H79         4.8480    3.9640   -4.3220 h1        1 MOL      0.082455
    179 H80         4.9980    2.4230   -2.5220 hn        1 MOL      0.271214
    180 Ca1         7.2040   -3.9910    1.1330 Ca        1 MOL      1.695862
    181 O27         7.6370   -2.1180    3.1010 oh        1 MOL     -0.873366
    182 H81         8.3310   -1.4990    3.3400 ho        1 MOL      0.413463
    183 H82         7.1880   -2.3060    3.9270 ho        1 MOL      0.413463
    184 O28         9.3550   -3.2970   -1.2540 oh        1 MOL     -0.873366
    185 H83         8.8310   -2.4990   -1.1960 ho        1 MOL      0.413463
    186 H84        10.2330   -3.0290   -1.0030 ho        1 MOL      0.413463
    187 O29         9.7950   -3.1730    1.6110 oh        1 MOL     -0.873366
    188 H85        10.5010   -3.6840    1.2180 ho        1 MOL      0.413463
    189 H86        10.0140   -3.1550    2.5470 ho        1 MOL      0.413463
    190 O30         8.5800   -6.2840    1.5110 oh        1 MOL     -0.873366
    191 H87         8.7020   -6.9720    2.1670 ho        1 MOL      0.413463
    192 H88         9.1660   -6.5200    0.7930 ho        1 MOL      0.413463
    193 O31         7.0760   -4.9550    3.8230 oh        1 MOL     -0.873366
    194 H89         7.6520   -5.3810    4.4580 ho        1 MOL      0.413463
    195 H90         6.2010   -5.0740    4.1740 ho        1 MOL      0.413463
@<TRIPOS>BOND
     1    1    2 1   
     2    1    4 1   
     3    1    5 1   
     4    1    6 1   
     5    2    3 2   
     6    2    7 1   
     7    7    8 1   
     8    7   15 1   
     9    8    9 1   
    10    8   11 1   
    11    8   16 1   
    12    9   10 2   
    13    9   19 1   
    14   11   12 1   
    15   11   17 1   
    16   11   18 1   
    17   12   13 1   
    18   12   14 1   
    19   19   20 1   
    20   19   27 1   
    21   20   21 1   
    22   20   23 1   
    23   20   28 1   
    24   21   22 2   
    25   21   38 1   
    26   23   24 1   
    27   23   25 1   
    28   23   29 1   
    29   24   26 1   
    30   24   30 1   
    31   24   31 1   
    32   25   32 1   
    33   25   33 1   
    34   25   34 1   
    35   26   35 1   
    36   26   36 1   
    37   26   37 1   
    38   38   39 1   
    39   38   46 1   
    40   39   40 1   
    41   39   42 1   
    42   39   47 1   
    43   40   41 2   
    44   40   50 1   
    45   42   43 1   
    46   42   48 1   
    47   42   49 1   
    48   43   44 1   
    49   43   45 1   
    50   50   51 1   
    51   50   54 1   
    52   51   52 1   
    53   51   55 1   
    54   51   56 1   
    55   52   53 2   
    56   52   57 1   
    57   57   58 1   
    58   57   65 1   
    59   58   59 1   
    60   58   61 1   
    61   58   66 1   
    62   59   60 2   
    63   59   69 1   
    64   61   62 1   
    65   61   67 1   
    66   61   68 1   
    67   62   63 1   
    68   62   64 1   
    69   69   70 1   
    70   69   73 1   
    71   70   71 1   
    72   70   74 1   
    73   70   75 1   
    74   71   72 2   
    75   71   76 1   
    76   76   77 1   
    77   76   85 1   
    78   77   78 1   
    79   77   80 1   
    80   77   86 1   
    81   78   79 2   
    82   78   93 1   
    83   80   81 1   
    84   80   87 1   
    85   80   88 1   
    86   81   82 1   
    87   81   89 1   
    88   81   90 1   
    89   82   83 1   
    90   82   84 2   
    91   83   91 1   
    92   83   92 1   
    93   93   94 1   
    94   93  100 1   
    95   94   95 1   
    96   94   97 1   
    97   94  101 1   
    98   95   96 2   
    99   95  109 1   
   100   97   98 1   
   101   97   99 1   
   102   97  102 1   
   103   98  103 1   
   104   98  104 1   
   105   98  105 1   
   106   99  106 1   
   107   99  107 1   
   108   99  108 1   
   109  109  110 1   
   110  109  117 1   
   111  110  111 1   
   112  110  113 1   
   113  110  118 1   
   114  111  112 2   
   115  111  123 1   
   116  113  114 1   
   117  113  119 1   
   118  113  120 1   
   119  114  115 1   
   120  114  116 2   
   121  115  121 1   
   122  115  122 1   
   123  123  124 1   
   124  123  135 1   
   125  124  125 1   
   126  124  127 1   
   127  124  136 1   
   128  125  126 2   
   129  125  144 1   
   130  127  128 1   
   131  127  137 1   
   132  127  138 1   
   133  128  129 ar  
   134  128  130 ar  
   135  129  131 ar  
   136  129  139 1   
   137  130  132 ar  
   138  130  140 1   
   139  131  133 ar  
   140  131  141 1   
   141  132  133 ar  
   142  132  142 1   
   143  133  134 1   
   144  134  143 1   
   145  144  145 1   
   146  144  153 1   
   147  145  146 1   
   148  145  148 1   
   149  145  154 1   
   150  146  147 2   
   151  146  159 1   
   152  148  149 1   
   153  148  155 1   
   154  148  156 1   
   155  149  150 1   
   156  149  157 1   
   157  149  158 1   
   158  150  151 1   
   159  150  152 1   
   160  159  160 1   
   161  159  168 1   
   162  160  161 1   
   163  160  163 1   
   164  160  169 1   
   165  161  162 2   
   166  161  174 1   
   167  163  164 1   
   168  163  170 1   
   169  163  171 1   
   170  164  165 1   
   171  164  172 1   
   172  164  173 1   
   173  165  166 1   
   174  165  167 1   
   175  174  175 1   
   176  174  179 1   
   177  175  176 1   
   178  175  177 1   
   179  175  178 1   
   180  181  182 1   
   181  181  183 1   
   182  184  185 1   
   183  184  186 1   
   184  187  188 1   
   185  187  189 1   
   186  190  191 1   
   187  190  192 1   
   188  193  194 1   
   189  193  195 1   
@<TRIPOS>SUBSTRUCTURE
     1 MOL         1 TEMP              0 ****  ****    0 ROOT
