@<TRIPOS>MOLECULE
MOL
  191   184     1     0     0
SMALL
resp


@<TRIPOS>ATOM
      1 C1          1.4340    1.2260   -3.5250 c3        1 MOL     -0.490230
      2 C2          2.6440    1.1210   -2.5260 c         1 MOL      0.630904
      3 O1          2.5380    0.5090   -1.4820 o         1 MOL     -0.552289
      4 H1          0.5060    1.3300   -2.9610 hc        1 MOL      0.130585
      5 H2          1.5670    2.0940   -4.1690 hc        1 MOL      0.130585
      6 H3          1.3880    0.3240   -4.1360 hc        1 MOL      0.130585
      7 N1          3.7340    1.7250   -2.9140 n         1 MOL     -0.372972
      8 C3          4.9630    1.6210   -2.1840 c3        1 MOL      0.041454
      9 C4          5.1020    2.5950   -1.0040 c         1 MOL      0.289099
     10 O2          6.1860    2.7910   -0.4780 o         1 MOL     -0.429490
     11 C5          6.1070    1.7650   -3.2630 c3        1 MOL     -0.024229
     12 C6          6.1240    2.9920   -4.1970 c         1 MOL      0.633601
     13 O3          7.0850    3.0680   -5.0180 o         1 MOL     -0.671957
     14 O4          5.1500    3.8060   -4.3180 o         1 MOL     -0.671957
     15 H4          3.7590    2.2920   -3.7500 hn        1 MOL      0.242140
     16 H5          5.0890    0.6230   -1.7660 h1        1 MOL      0.034779
     17 H6          6.0750    0.8880   -3.9120 hc        1 MOL      0.019084
     18 H7          7.0930    1.7110   -2.7980 hc        1 MOL      0.019084
     19 N2          4.0270    3.2760   -0.6490 n         1 MOL     -0.185816
     20 C7          4.0100    4.3090    0.3770 c3        1 MOL      0.011345
     21 C8          4.5660    3.8740    1.7920 c         1 MOL      0.522747
     22 O5          5.3670    4.6030    2.3440 o         1 MOL     -0.525913
     23 C9          4.5970    5.5960   -0.1770 c3        1 MOL      0.006947
     24 C10         3.8620    6.0400   -1.4640 c3        1 MOL      0.107725
     25 C11         4.6680    7.1100   -2.1190 c3        1 MOL     -0.083461
     26 C12         4.1010    7.4120   -3.4950 c3        1 MOL      0.132423
     27 N3          4.9580    8.3040   -4.2850 n4        1 MOL     -0.308957
     28 H8          3.2030    2.8360   -1.0230 hn        1 MOL      0.168176
     29 H9          3.0090    4.6300    0.6660 h1        1 MOL      0.062075
     30 H10         5.6480    5.3620   -0.3630 hc        1 MOL      0.025758
     31 H11         4.4800    6.4030    0.5460 hc        1 MOL      0.025758
     32 H12         2.8650    6.3590   -1.1890 hc        1 MOL     -0.040116
     33 H13         3.8250    5.2320   -2.2000 hc        1 MOL     -0.040116
     34 H14         5.7250    6.8480   -2.1660 hc        1 MOL      0.024854
     35 H15         4.6560    7.9940   -1.4680 hc        1 MOL      0.024854
     36 H16         3.1210    7.8770   -3.3850 hx        1 MOL      0.052131
     37 H17         3.9970    6.4830   -4.0510 hx        1 MOL      0.052131
     38 H18         5.8540    7.8740   -4.4740 hn        1 MOL      0.308850
     39 H19         4.5560    8.5740   -5.1670 hn        1 MOL      0.308850
     40 H20         5.2510    9.1160   -3.7490 hn        1 MOL      0.308850
     41 N4          4.1720    2.6810    2.2800 n         1 MOL     -0.451529
     42 C13         4.8650    2.1180    3.4560 c3        1 MOL      0.117822
     43 C14         5.4580    0.7680    3.1070 c         1 MOL      0.623547
     44 O6          5.0970    0.1490    2.1370 o         1 MOL     -0.511556
     45 C15         3.8800    1.9400    4.6560 c3        1 MOL     -0.222601
     46 C16         2.5590    1.2260    4.2000 c         1 MOL      0.636031
     47 O7          2.3910    0.0290    4.5780 o         1 MOL     -0.743634
     48 O8          1.7670    1.7250    3.3770 o         1 MOL     -0.743634
     49 H21         3.4280    2.1630    1.8210 hn        1 MOL      0.290250
     50 H22         5.6160    2.8020    3.8610 h1        1 MOL      0.060953
     51 H23         3.5880    2.8970    5.0810 hc        1 MOL      0.074100
     52 H24         4.4420    1.4550    5.4600 hc        1 MOL      0.074100
     53 N5          6.3810    0.2730    3.9040 n         1 MOL     -0.502258
     54 C17         7.2970   -0.7700    3.4530 c3        1 MOL     -0.162797
     55 C18         8.2290   -0.3540    2.2090 c         1 MOL      0.585246
     56 O9          9.0310    0.5860    2.2840 o         1 MOL     -0.551432
     57 H25         6.5910    0.6480    4.8120 hn        1 MOL      0.347440
     58 H26         6.6640   -1.6280    3.2030 h1        1 MOL      0.103031
     59 H27         7.9860   -0.9890    4.2710 h1        1 MOL      0.103031
     60 N6          8.1020   -0.7770    0.9900 n         1 MOL     -0.451964
     61 C19         7.5540   -2.0820    0.6250 c3        1 MOL      0.025483
     62 C20         7.1460   -1.9590   -0.9020 c         1 MOL      0.597390
     63 O10         8.0120   -1.7140   -1.7450 o         1 MOL     -0.544688
     64 C21         8.6760   -3.0680    0.8560 c3        1 MOL     -0.268467
     65 C22         8.2580   -4.5730    0.8010 c         1 MOL      0.683159
     66 N7          9.1560   -5.4600    1.1350 n         1 MOL     -0.794775
     67 O11         7.1150   -4.8850    0.5070 o         1 MOL     -0.570940
     68 H28         8.3440   -0.1130    0.2630 hn        1 MOL      0.335246
     69 H29         6.6760   -2.3060    1.2240 h1        1 MOL      0.064737
     70 H30         9.1160   -2.8520    1.8280 hc        1 MOL      0.093422
     71 H31         9.3810   -2.9270    0.0380 hc        1 MOL      0.093422
     72 H32        10.1060   -5.1710    1.3370 hn        1 MOL      0.373770
     73 H33         8.8650   -6.3950    0.8920 hn        1 MOL      0.373770
     74 N8          5.9110   -2.2150   -1.3110 n         1 MOL     -0.438864
     75 C23         4.8100   -2.4220   -0.3960 c3        1 MOL      0.119096
     76 C24         3.4270   -2.5900   -1.1100 c         1 MOL      0.652078
     77 O12         3.4980   -2.6600   -2.3450 o         1 MOL     -0.559587
     78 H34         5.7230   -2.2220   -2.3000 hn        1 MOL      0.302822
     79 H35         4.6330   -1.6080    0.3030 h1        1 MOL     -0.001400
     80 H36         5.0110   -3.3690    0.1010 h1        1 MOL     -0.001400
     81 N9          2.3040   -2.7200   -0.4500 n         1 MOL     -0.703609
     82 C25         0.9920   -3.0910   -0.9570 c3        1 MOL      0.420936
     83 C26        -0.1170   -2.1680   -0.6420 c         1 MOL      0.319566
     84 O13        -0.0630   -1.3670    0.2980 o         1 MOL     -0.436902
     85 C27         0.7610   -4.5800   -0.5200 c3        1 MOL     -0.036785
     86 C28        -0.0910   -5.4640   -1.4320 ca        1 MOL     -0.003907
     87 C29        -1.3900   -5.8790   -1.0480 ca        1 MOL     -0.134672
     88 C30         0.4760   -6.0660   -2.6150 ca        1 MOL     -0.134672
     89 C31        -2.1660   -6.7260   -1.9160 ca        1 MOL     -0.306196
     90 C32        -0.2710   -6.9120   -3.4680 ca        1 MOL     -0.306196
     91 C33        -1.5800   -7.2160   -3.1040 ca        1 MOL      0.413176
     92 O14        -2.2390   -8.0450   -3.9500 oh        1 MOL     -0.535992
     93 H37         2.3360   -2.4780    0.5350 hn        1 MOL      0.313614
     94 H38         1.2290   -3.1910   -2.0180 h1        1 MOL     -0.003784
     95 H39         0.3350   -4.5050    0.4720 hc        1 MOL      0.016951
     96 H40         1.7200   -5.0770   -0.3720 hc        1 MOL      0.016951
     97 H41        -1.8070   -5.5690   -0.0980 ha        1 MOL      0.138571
     98 H42         1.4770   -5.7390   -2.8500 ha        1 MOL      0.138571
     99 H43        -3.2030   -6.9900   -1.8110 ha        1 MOL      0.162993
    100 H44         0.1060   -7.2990   -4.4020 ha        1 MOL      0.162993
    101 H45        -1.6600   -8.4740   -4.5800 ho        1 MOL      0.394543
    102 N10        -1.1720   -2.3350   -1.4160 n         1 MOL     -0.282724
    103 C34        -2.4040   -1.5890   -1.3960 c3        1 MOL     -0.222104
    104 C35        -3.3240   -2.0460   -0.2530 c         1 MOL      0.447723
    105 O15        -3.1720   -3.1660    0.3030 o         1 MOL     -0.555695
    106 C36        -3.0950   -1.6810   -2.7650 c3        1 MOL      0.437431
    107 C37        -3.5610   -3.1550   -3.0970 c3        1 MOL     -0.192188
    108 C38        -4.2770   -0.7050   -2.7740 c3        1 MOL     -0.402951
    109 C39        -3.9220   -3.3360   -4.5790 c3        1 MOL     -0.255332
    110 H46        -1.0500   -2.9310   -2.2240 hn        1 MOL      0.180425
    111 H47        -2.2270   -0.5450   -1.1710 h1        1 MOL      0.130448
    112 H48        -2.4700   -1.2610   -3.5520 hc        1 MOL     -0.017329
    113 H49        -4.2990   -3.4750   -2.3710 hc        1 MOL      0.107529
    114 H50        -2.7210   -3.8460   -2.9720 hc        1 MOL      0.107529
    115 H51        -4.1430    0.0790   -2.0240 hc        1 MOL      0.093719
    116 H52        -4.4470   -0.2180   -3.7320 hc        1 MOL      0.093719
    117 H53        -5.1860   -1.2090   -2.4500 hc        1 MOL      0.093719
    118 H54        -4.6680   -2.6600   -5.0020 hc        1 MOL      0.076304
    119 H55        -3.0510   -3.2250   -5.2220 hc        1 MOL      0.076304
    120 H56        -4.3460   -4.3180   -4.7910 hc        1 MOL      0.076304
    121 N11        -4.2490   -1.2320    0.2320 n         1 MOL     -0.281767
    122 C40        -5.0660   -1.5440    1.4240 c3        1 MOL      0.118707
    123 C41        -5.6760   -0.2590    2.0450 c         1 MOL      0.392174
    124 O16        -5.6050    0.7910    1.4560 o         1 MOL     -0.375216
    125 C42        -6.2350   -2.4730    1.1080 c3        1 MOL     -0.007404
    126 O17        -7.3050   -1.8340    0.3520 oh        1 MOL     -0.491250
    127 H57        -4.3100   -0.2930   -0.1380 hn        1 MOL      0.210480
    128 H58        -4.4710   -2.0390    2.1860 h1        1 MOL     -0.013206
    129 H59        -6.6640   -2.7650    2.0600 h1        1 MOL      0.069588
    130 H60        -5.8860   -3.3640    0.6000 h1        1 MOL      0.069588
    131 H61        -8.0100   -2.4770    0.2490 ho        1 MOL      0.379247
    132 N12        -6.2860   -0.2830    3.2480 n         1 MOL     -0.446409
    133 C43        -6.9640    0.8730    3.8340 c3        1 MOL      0.151437
    134 C44        -8.2040    1.4600    3.0410 c         1 MOL      0.520432
    135 O18        -8.3540    2.6190    2.7090 o         1 MOL     -0.422957
    136 C45        -5.9930    1.9290    4.3360 c3        1 MOL     -0.411554
    137 H62        -6.3190   -1.1980    3.6770 hn        1 MOL      0.288512
    138 H63        -7.3690    0.3900    4.7260 h1        1 MOL      0.053206
    139 H64        -6.5740    2.6240    4.9460 hc        1 MOL      0.125132
    140 H65        -5.2190    1.4360    4.9150 hc        1 MOL      0.125132
    141 H66        -5.4320    2.3570    3.5010 hc        1 MOL      0.125132
    142 N13        -9.0120    0.4920    2.6130 n         1 MOL     -0.639836
    143 C46       -10.2010    0.6860    1.7540 c3        1 MOL      0.376699
    144 C47        -9.9310    1.4670    0.3870 c         1 MOL      0.218654
    145 O19       -10.8100    2.1530   -0.1990 o         1 MOL     -0.463638
    146 C48       -11.4020    1.2700    2.6080 c3        1 MOL     -0.324104
    147 H67        -8.8180   -0.4670    2.8810 hn        1 MOL      0.299536
    148 H68       -10.5440   -0.3090    1.4770 h1        1 MOL     -0.006914
    149 H69       -12.2140    1.1230    1.9030 hc        1 MOL      0.092932
    150 H70       -11.5890    0.7220    3.5320 hc        1 MOL      0.092932
    151 H71       -11.2250    2.3420    2.7180 hc        1 MOL      0.092932
    152 N14        -8.6730    1.4490   -0.0360 n         1 MOL      0.120180
    153 C49        -8.1530    2.1040   -1.2280 c3        1 MOL     -0.012999
    154 C50        -8.5450    1.3120   -2.4450 c         1 MOL      0.310282
    155 O20        -9.0940    1.9070   -3.3660 o         1 MOL     -0.475569
    156 C51        -6.6380    2.2400   -1.0070 c3        1 MOL      0.208383
    157 C52        -5.9820    3.2480   -1.9510 c3        1 MOL     -0.401905
    158 C53        -6.2140    4.6930   -1.4830 c         1 MOL      0.803297
    159 O21        -5.2160    5.2860   -1.0130 o         1 MOL     -0.715981
    160 O22        -7.2980    5.2180   -1.7070 o         1 MOL     -0.715981
    161 H72        -7.9700    1.1170    0.6030 hn        1 MOL     -0.117092
    162 H73        -8.6070    3.0940   -1.2220 h1        1 MOL      0.146115
    163 H74        -6.0920    1.2960   -1.0470 hc        1 MOL     -0.018536
    164 H75        -6.4640    2.5650    0.0100 hc        1 MOL     -0.018536
    165 H76        -6.4140    3.1670   -2.9490 hc        1 MOL      0.055984
    166 H77        -4.9360    2.9550   -1.9220 hc        1 MOL      0.055984
    167 N15        -8.5350    0.0160   -2.4180 n         1 MOL     -0.108437
    168 C54        -9.4560   -0.8060   -3.1800 c3        1 MOL     -0.229791
    169 H78       -10.3560   -0.2320   -3.4020 h1        1 MOL      0.093666
    170 H79        -8.9830   -1.1130   -4.1130 h1        1 MOL      0.093666
    171 H80        -9.7210   -1.6890   -2.5990 h1        1 MOL      0.093666
    172 H81        -8.2310   -0.5230   -1.6240 hn        1 MOL      0.098887
    173 Ca1         0.4900   -0.4930    2.8640 Ca        1 MOL      1.795739
    174 O23         1.8610   -2.8610    2.4520 oh        1 MOL     -0.851252
    175 H82         2.7650   -3.0000    2.7150 ho        1 MOL      0.415252
    176 H83         1.4100   -3.6760    2.6880 ho        1 MOL      0.415252
    177 O24         2.6370    0.0950    1.1550 oh        1 MOL     -0.851252
    178 H84         3.5580    0.1140    1.4210 ho        1 MOL      0.415252
    179 H85         2.6560    0.1030    0.2040 ho        1 MOL      0.415252
    180 O25        -1.6880    0.6740    3.9720 oh        1 MOL     -0.851252
    181 H86        -1.9350    1.4370    3.4400 ho        1 MOL      0.415252
    182 H87        -2.4500    0.5300    4.5390 ho        1 MOL      0.415252
    183 O26        -0.5030    1.2720    1.0570 oh        1 MOL     -0.851252
    184 H88        -0.1310    2.1000    0.7390 ho        1 MOL      0.415252
    185 H89        -1.4390    1.3440    0.8550 ho        1 MOL      0.415252
    186 O27        -1.5060   -2.2480    2.5150 oh        1 MOL     -0.851252
    187 H90        -1.8420   -2.7480    3.2650 ho        1 MOL      0.415252
    188 H91        -1.9220   -2.6510    1.7560 ho        1 MOL      0.415252
    189 O28         0.3160   -2.1240    4.8620 oh        1 MOL     -0.851252
    190 H92         0.9990   -2.7530    5.1060 ho        1 MOL      0.415252
    191 H93        -0.3530   -2.2300    5.5360 ho        1 MOL      0.415252
@<TRIPOS>BOND
     1    1    2 1   
     2    1    4 1   
     3    1    5 1   
     4    1    6 1   
     5    2    3 2   
     6    2    7 1   
     7    7    8 1   
     8    7   15 1   
     9    8    9 1   
    10    8   11 1   
    11    8   16 1   
    12    9   10 2   
    13    9   19 1   
    14   11   12 1   
    15   11   17 1   
    16   11   18 1   
    17   12   13 1   
    18   12   14 1   
    19   19   20 1   
    20   19   28 1   
    21   20   21 1   
    22   20   23 1   
    23   20   29 1   
    24   21   22 2   
    25   21   41 1   
    26   23   24 1   
    27   23   30 1   
    28   23   31 1   
    29   24   25 1   
    30   24   32 1   
    31   24   33 1   
    32   25   26 1   
    33   25   34 1   
    34   25   35 1   
    35   26   27 1   
    36   26   36 1   
    37   26   37 1   
    38   27   38 1   
    39   27   39 1   
    40   27   40 1   
    41   41   42 1   
    42   41   49 1   
    43   42   43 1   
    44   42   45 1   
    45   42   50 1   
    46   43   44 2   
    47   43   53 1   
    48   45   46 1   
    49   45   51 1   
    50   45   52 1   
    51   46   47 1   
    52   46   48 1   
    53   53   54 1   
    54   53   57 1   
    55   54   55 1   
    56   54   58 1   
    57   54   59 1   
    58   55   56 2   
    59   55   60 1   
    60   60   61 1   
    61   60   68 1   
    62   61   62 1   
    63   61   64 1   
    64   61   69 1   
    65   62   63 2   
    66   62   74 1   
    67   64   65 1   
    68   64   70 1   
    69   64   71 1   
    70   65   66 1   
    71   65   67 2   
    72   66   72 1   
    73   66   73 1   
    74   74   75 1   
    75   74   78 1   
    76   75   76 1   
    77   75   79 1   
    78   75   80 1   
    79   76   77 2   
    80   76   81 1   
    81   81   82 1   
    82   81   93 1   
    83   82   83 1   
    84   82   85 1   
    85   82   94 1   
    86   83   84 2   
    87   83  102 1   
    88   85   86 1   
    89   85   95 1   
    90   85   96 1   
    91   86   87 ar  
    92   86   88 ar  
    93   87   89 ar  
    94   87   97 1   
    95   88   90 ar  
    96   88   98 1   
    97   89   91 ar  
    98   89   99 1   
    99   90   91 ar  
   100   90  100 1   
   101   91   92 1   
   102   92  101 1   
   103  102  103 1   
   104  102  110 1   
   105  103  104 1   
   106  103  106 1   
   107  103  111 1   
   108  104  105 2   
   109  104  121 1   
   110  106  107 1   
   111  106  108 1   
   112  106  112 1   
   113  107  109 1   
   114  107  113 1   
   115  107  114 1   
   116  108  115 1   
   117  108  116 1   
   118  108  117 1   
   119  109  118 1   
   120  109  119 1   
   121  109  120 1   
   122  121  122 1   
   123  121  127 1   
   124  122  123 1   
   125  122  125 1   
   126  122  128 1   
   127  123  124 2   
   128  123  132 1   
   129  125  126 1   
   130  125  129 1   
   131  125  130 1   
   132  126  131 1   
   133  132  133 1   
   134  132  137 1   
   135  133  134 1   
   136  133  136 1   
   137  133  138 1   
   138  134  135 2   
   139  134  142 1   
   140  136  139 1   
   141  136  140 1   
   142  136  141 1   
   143  142  143 1   
   144  142  147 1   
   145  143  144 1   
   146  143  146 1   
   147  143  148 1   
   148  144  145 2   
   149  144  152 1   
   150  146  149 1   
   151  146  150 1   
   152  146  151 1   
   153  152  153 1   
   154  152  161 1   
   155  153  154 1   
   156  153  156 1   
   157  153  162 1   
   158  154  155 2   
   159  154  167 1   
   160  156  157 1   
   161  156  163 1   
   162  156  164 1   
   163  157  158 1   
   164  157  165 1   
   165  157  166 1   
   166  158  159 1   
   167  158  160 1   
   168  167  168 1   
   169  167  172 1   
   170  168  169 1   
   171  168  170 1   
   172  168  171 1   
   173  174  175 1   
   174  174  176 1   
   175  177  178 1   
   176  177  179 1   
   177  180  181 1   
   178  180  182 1   
   179  183  184 1   
   180  183  185 1   
   181  186  187 1   
   182  186  188 1   
   183  189  190 1   
   184  189  191 1   
@<TRIPOS>SUBSTRUCTURE
     1 MOL         1 TEMP              0 ****  ****    0 ROOT
