@<TRIPOS>MOLECULE
MOL
  187   181     1     0     0
SMALL
resp


@<TRIPOS>ATOM
      1 C1          2.5650   -2.0490    3.1330 c3        1 MOL     -0.442176
      2 C2          4.0570   -1.7340    2.8630 c         1 MOL      0.654442
      3 O1          4.5640   -0.6860    3.1160 o         1 MOL     -0.583476
      4 H1          2.3230   -1.8000    4.1660 hc        1 MOL      0.115245
      5 H2          1.9420   -1.4590    2.4620 hc        1 MOL      0.115245
      6 H3          2.3810   -3.1100    2.9620 hc        1 MOL      0.115245
      7 N1          4.7400   -2.7490    2.4360 n         1 MOL     -0.496754
      8 C3          6.1950   -2.8380    2.2280 c3        1 MOL      0.377048
      9 C4          6.6130   -2.3310    0.7980 c         1 MOL      0.395966
     10 O2          5.8890   -1.4620    0.2840 o         1 MOL     -0.530906
     11 C5          6.4570   -4.3930    2.4410 c3        1 MOL     -0.443875
     12 C6          7.8620   -4.7890    2.6680 c         1 MOL      0.785912
     13 O3          8.8420   -4.0050    2.6120 o         1 MOL     -0.725456
     14 O4          8.1310   -6.0020    2.7050 o         1 MOL     -0.725456
     15 H4          4.2340   -3.6010    2.2590 hn        1 MOL      0.278833
     16 H5          6.6990   -2.2740    3.0090 h1        1 MOL      0.031583
     17 H6          6.0120   -4.8780    1.5730 hc        1 MOL      0.058711
     18 H7          5.8350   -4.6710    3.2850 hc        1 MOL      0.058711
     19 N2          7.7350   -2.7740    0.2110 n         1 MOL     -0.501525
     20 C7          8.1560   -2.4150   -1.2080 c3        1 MOL      0.240283
     21 C8          8.8100   -1.0180   -1.3950 c         1 MOL      0.249745
     22 O5          9.1060   -0.5550   -2.5580 o         1 MOL     -0.533608
     23 C9          9.0020   -3.6110   -1.6430 c3        1 MOL     -0.130846
     24 H8          8.2030   -3.5560    0.6430 hn        1 MOL      0.339972
     25 H9          7.2630   -2.3960   -1.8260 h1        1 MOL      0.047571
     26 H10         8.3670   -4.4980   -1.6060 hc        1 MOL      0.040805
     27 H11         9.3240   -3.5150   -2.6790 hc        1 MOL      0.040805
     28 H12         9.8470   -3.9080   -1.0130 hc        1 MOL      0.040805
     29 N3          8.9060   -0.2130   -0.3140 n         1 MOL     -0.107421
     30 C10         9.2150    1.1950   -0.3050 c3        1 MOL      0.072899
     31 C11         8.0110    2.1220   -0.0740 c         1 MOL      0.477057
     32 O6          8.0300    3.3130   -0.1340 o         1 MOL     -0.539296
     33 C12        10.3540    1.4560    0.7090 c3        1 MOL     -0.137757
     34 C13        11.6650    0.6330    0.6290 c         1 MOL      0.747769
     35 O7         11.6660   -0.4860    1.1440 o         1 MOL     -0.701802
     36 O8         12.7290    1.0840    0.1750 o         1 MOL     -0.701802
     37 H13         8.7510   -0.7040    0.5590 hn        1 MOL      0.179805
     38 H14         9.6770    1.5600   -1.2330 h1        1 MOL      0.067202
     39 H15        10.0320    1.2310    1.7240 hc        1 MOL     -0.002577
     40 H16        10.6900    2.4880    0.6050 hc        1 MOL     -0.002577
     41 N4          6.9400    1.4560    0.4260 n         1 MOL     -0.404816
     42 C14         5.6180    2.0560    0.7140 c3        1 MOL      0.052227
     43 C15         4.6470    1.9510   -0.4450 c         1 MOL      0.584588
     44 O9          4.7960    1.2210   -1.4350 o         1 MOL     -0.513742
     45 H17         6.9980    0.4740    0.6400 hn        1 MOL      0.229761
     46 H18         5.7500    3.0850    1.0460 h1        1 MOL      0.052517
     47 H19         5.1150    1.6270    1.5880 h1        1 MOL      0.052517
     48 N5          3.5020    2.6370   -0.3470 n         1 MOL     -0.573897
     49 C16         2.5140    2.9090   -1.3430 c3        1 MOL     -0.027039
     50 C17         1.8550    4.2850   -1.0650 c         1 MOL      0.540790
     51 O10         1.4320    4.6270    0.0300 o         1 MOL     -0.491764
     52 C18         1.5090    1.7220   -1.2770 c3        1 MOL     -0.223122
     53 C19         0.8350    1.5590   -2.6070 c         1 MOL      0.559601
     54 N6         -0.3950    2.0440   -2.7330 n         1 MOL     -0.759152
     55 O11         1.4450    1.2780   -3.6290 o         1 MOL     -0.589015
     56 H20         3.3170    3.1260    0.5220 hn        1 MOL      0.285805
     57 H21         2.9840    2.9090   -2.3240 h1        1 MOL      0.105933
     58 H22         0.7990    1.9850   -0.4920 hc        1 MOL      0.184900
     59 H23         2.0350    0.7910   -1.0250 hc        1 MOL      0.184900
     60 H24        -0.8340    2.3610   -1.8870 hn        1 MOL      0.359478
     61 H25        -0.8060    2.0180   -3.6570 hn        1 MOL      0.359478
     62 N7          2.0110    5.1310   -2.0940 n         1 MOL     -0.281483
     63 C20         1.5650    6.5130   -2.0610 c3        1 MOL     -0.385716
     64 C21         0.0370    6.4750   -1.7610 c         1 MOL      0.571626
     65 O12        -0.7920    5.9440   -2.5190 o         1 MOL     -0.527836
     66 H26         2.3870    4.7810   -2.9570 hn        1 MOL      0.304412
     67 H27         1.7220    6.9410   -3.0480 h1        1 MOL      0.164735
     68 H28         2.1080    6.9730   -1.2320 h1        1 MOL      0.164735
     69 N8         -0.4260    7.0820   -0.6860 n         1 MOL     -0.241411
     70 C22        -1.7770    7.5900   -0.4800 c3        1 MOL     -0.427053
     71 C23        -2.6500    6.6670    0.3770 c         1 MOL      0.518955
     72 O13        -3.7980    6.9920    0.6930 o         1 MOL     -0.561573
     73 C24        -1.8170    8.9740    0.1680 c3        1 MOL      0.417754
     74 C25        -1.3740    9.0420    1.6200 c3        1 MOL     -0.244520
     75 O14        -0.9150    9.8560   -0.5560 oh        1 MOL     -0.619372
     76 H29         0.2910    7.3960   -0.0490 hn        1 MOL      0.250157
     77 H30        -2.1500    7.7130   -1.4960 h1        1 MOL      0.223671
     78 H31        -2.7540    9.5180    0.1330 h1        1 MOL      0.065200
     79 H32        -0.0360    9.6250   -0.2720 ho        1 MOL      0.351703
     80 H33        -0.5560    8.3630    1.8480 hc        1 MOL      0.062420
     81 H34        -1.0700   10.0510    1.8790 hc        1 MOL      0.062420
     82 H35        -2.1440    8.7270    2.3190 hc        1 MOL      0.062420
     83 N9         -2.0770    5.4940    0.6960 n         1 MOL     -0.032189
     84 C26        -2.6670    4.3050    1.3580 c3        1 MOL     -0.059299
     85 C27        -2.4090    2.9750    0.5510 c         1 MOL      0.263191
     86 O15        -1.4970    2.9170   -0.2820 o         1 MOL     -0.293891
     87 C28        -2.2300    4.1950    2.7830 c3        1 MOL      0.238145
     88 C29        -0.7100    4.2480    2.9030 c3        1 MOL     -0.040841
     89 C30        -2.7610    5.4570    3.4790 c3        1 MOL     -0.478216
     90 C31        -0.1640    3.7240    4.2180 c3        1 MOL     -0.141360
     91 H36        -1.1490    5.3000    0.3240 hn        1 MOL     -0.028587
     92 H37        -3.7370    4.5070    1.3810 h1        1 MOL      0.073734
     93 H38        -2.6690    3.2730    3.1810 hc        1 MOL     -0.004219
     94 H39        -0.3110    5.2480    2.7810 hc        1 MOL      0.045180
     95 H40        -0.2850    3.5650    2.1650 hc        1 MOL      0.045180
     96 H41        -2.1030    6.3140    3.2830 hc        1 MOL      0.117814
     97 H42        -3.8250    5.5090    3.2320 hc        1 MOL      0.117814
     98 H43        -2.5520    5.2850    4.5320 hc        1 MOL      0.117814
     99 H44        -0.3390    4.4370    5.0290 hc        1 MOL      0.034584
    100 H45        -0.7140    2.8120    4.4260 hc        1 MOL      0.034584
    101 H46         0.8980    3.5300    4.1340 hc        1 MOL      0.034584
    102 N10        -3.1010    1.8510    0.6980 n         1 MOL     -0.385699
    103 C32        -2.9850    0.6630   -0.2270 c3        1 MOL      0.027801
    104 C33        -4.3360   -0.0720   -0.3990 c         1 MOL      0.568570
    105 O16        -4.4310   -1.2440   -0.6700 o         1 MOL     -0.504973
    106 C34        -1.8920   -0.2660    0.2360 c3        1 MOL      0.011594
    107 C35        -1.4180   -1.3880   -0.6410 c         1 MOL      0.611986
    108 O17        -1.5890   -1.4230   -1.8890 o         1 MOL     -0.742260
    109 O18        -0.6470   -2.2390   -0.1080 o         1 MOL     -0.742260
    110 H47        -3.7830    1.7740    1.4380 hn        1 MOL      0.298467
    111 H48        -2.6180    0.9600   -1.2090 h1        1 MOL      0.045379
    112 H49        -2.1720   -0.6230    1.2200 hc        1 MOL     -0.005673
    113 H50        -1.0290    0.3580    0.4650 hc        1 MOL     -0.005673
    114 N11        -5.4740    0.6070   -0.2210 n         1 MOL     -0.578447
    115 C36        -6.7820    0.0640   -0.5890 c3        1 MOL      0.463229
    116 C37        -7.2030   -1.0490    0.3850 c         1 MOL      0.183480
    117 O19        -7.0630   -0.7820    1.6370 o         1 MOL     -0.501258
    118 C38        -7.8810    1.1830   -0.5640 c3        1 MOL     -0.242210
    119 C39        -9.3230    0.6220   -0.7680 ca        1 MOL      0.040046
    120 C40        -9.8190    0.3930   -2.0660 ca        1 MOL     -0.162908
    121 C41       -10.1290    0.2370    0.3580 ca        1 MOL     -0.162908
    122 C42       -11.0700   -0.1610   -2.2140 ca        1 MOL     -0.111200
    123 C43       -11.4220   -0.3480    0.1840 ca        1 MOL     -0.111200
    124 C44       -11.8300   -0.5040   -1.1720 ca        1 MOL     -0.115455
    125 H51        -5.4260    1.5420    0.1790 hn        1 MOL      0.246095
    126 H52        -6.8010   -0.3390   -1.6010 h1        1 MOL     -0.042406
    127 H53        -7.6540    1.7970   -1.4470 hc        1 MOL      0.087446
    128 H54        -7.7750    1.7900    0.3310 hc        1 MOL      0.087446
    129 H55        -9.3090    0.7140   -2.9620 ha        1 MOL      0.118611
    130 H56        -9.6890    0.3530    1.3350 ha        1 MOL      0.118611
    131 H57       -11.5250   -0.3230   -3.1770 ha        1 MOL      0.103537
    132 H58       -12.0050   -0.6040    1.0550 ha        1 MOL      0.103537
    133 H59       -12.7860   -0.9590   -1.3720 ha        1 MOL      0.087485
    134 N12        -7.6520   -2.2170   -0.0810 n         1 MOL      0.053397
    135 C45        -8.0460   -3.3780    0.7960 c3        1 MOL     -0.035659
    136 C46        -6.9550   -3.8500    1.6960 c         1 MOL      0.221052
    137 O20        -7.2100   -4.5500    2.6960 o         1 MOL     -0.479038
    138 C47        -8.4170   -4.5120   -0.1050 c3        1 MOL      0.152331
    139 C48        -8.6390   -3.9280   -1.4690 c3        1 MOL     -0.177199
    140 C49        -7.7180   -2.6800   -1.5090 c3        1 MOL     -0.029960
    141 H60        -8.9680   -3.1920    1.3500 h1        1 MOL      0.089703
    142 H61        -7.5550   -5.1910   -0.0880 hc        1 MOL      0.000881
    143 H62        -9.2840   -5.1010    0.2050 hc        1 MOL      0.000881
    144 H63        -8.3170   -4.6710   -2.1910 hc        1 MOL      0.052248
    145 H64        -9.6830   -3.6170   -1.5550 hc        1 MOL      0.052248
    146 H65        -6.7860   -3.0870   -1.8850 h1        1 MOL      0.047162
    147 H66        -8.1240   -1.8690   -2.1050 h1        1 MOL      0.047162
    148 N13        -5.6600   -3.5630    1.3110 n         1 MOL     -0.065534
    149 C50        -4.5190   -3.9140    2.2110 c3        1 MOL     -0.146127
    150 C51        -4.2680   -2.9820    3.3900 c         1 MOL      0.420956
    151 O21        -3.6220   -3.3980    4.3630 o         1 MOL     -0.542726
    152 C52        -3.2080   -4.0400    1.3560 c3        1 MOL      0.070956
    153 C53        -3.2750   -5.2720    0.4570 c3        1 MOL     -0.047145
    154 C54        -2.0040   -5.5200   -0.3690 c         1 MOL      0.623886
    155 O22        -1.7460   -4.8790   -1.4340 o         1 MOL     -0.692885
    156 O23        -1.2370   -6.4200    0.0570 o         1 MOL     -0.692885
    157 H67        -5.5550   -2.9330    0.5300 hn        1 MOL      0.167648
    158 H68        -4.7170   -4.9030    2.6100 h1        1 MOL      0.128178
    159 H69        -2.3330   -4.1460    1.9910 hc        1 MOL      0.044098
    160 H70        -3.2390   -3.1780    0.6790 hc        1 MOL      0.044098
    161 H71        -4.1500   -5.2300   -0.1930 hc        1 MOL     -0.016049
    162 H72        -3.3680   -6.1270    1.1250 hc        1 MOL     -0.016049
    163 N14        -4.8080   -1.7640    3.3670 n         1 MOL     -0.095159
    164 C55        -4.9730   -0.8200    4.4720 c3        1 MOL     -0.191443
    165 H73        -4.3910   -1.1600    5.3300 h1        1 MOL      0.081782
    166 H74        -4.6230    0.1650    4.1640 h1        1 MOL      0.081782
    167 H75        -6.0260   -0.7620    4.7480 h1        1 MOL      0.081782
    168 H76        -5.1650   -1.4570    2.4780 hn        1 MOL      0.160695
    169 Ca1         0.2600   -3.4180   -2.4320 Ca        1 MOL      1.724012
    170 O24         0.2240   -5.5120   -4.0880 oh        1 MOL     -0.800758
    171 H77        -0.5920   -5.4130   -4.5730 ho        1 MOL      0.393926
    172 H78         0.8990   -5.5860   -4.7560 ho        1 MOL      0.393926
    173 O25        -1.5030   -3.2620   -4.5800 oh        1 MOL     -0.800758
    174 H79        -1.3710   -2.6460   -5.3010 ho        1 MOL      0.393926
    175 H80        -2.4360   -3.2170   -4.3870 ho        1 MOL      0.393926
    176 O26         2.4530   -2.3610   -1.0340 oh        1 MOL     -0.800758
    177 H81         2.7940   -3.2540   -1.0530 ho        1 MOL      0.393926
    178 H82         3.1770   -1.8210   -1.3580 ho        1 MOL      0.393926
    179 O27         2.5470   -3.9790   -3.5720 oh        1 MOL     -0.800758
    180 H83         3.1200   -4.7400   -3.6340 ho        1 MOL      0.393926
    181 H84         2.7790   -3.4420   -4.3380 ho        1 MOL      0.393926
    182 O28         1.2960   -5.4420   -1.0020 oh        1 MOL     -0.800758
    183 H85         0.5230   -6.0090   -0.9560 ho        1 MOL      0.393926
    184 H86         1.7830   -5.6410   -0.2030 ho        1 MOL      0.393926
    185 O29         0.9330   -1.3460   -3.9740 oh        1 MOL     -0.800758
    186 H87         0.7060   -0.4220   -3.8890 ho        1 MOL      0.393926
    187 H88         1.1770   -1.4580   -4.8920 ho        1 MOL      0.393926
@<TRIPOS>BOND
     1    1    2 1   
     2    1    4 1   
     3    1    5 1   
     4    1    6 1   
     5    2    3 2   
     6    2    7 1   
     7    7    8 1   
     8    7   15 1   
     9    8    9 1   
    10    8   11 1   
    11    8   16 1   
    12    9   10 2   
    13    9   19 1   
    14   11   12 1   
    15   11   17 1   
    16   11   18 1   
    17   12   13 1   
    18   12   14 1   
    19   19   20 1   
    20   19   24 1   
    21   20   21 1   
    22   20   23 1   
    23   20   25 1   
    24   21   22 2   
    25   21   29 1   
    26   23   26 1   
    27   23   27 1   
    28   23   28 1   
    29   29   30 1   
    30   29   37 1   
    31   30   31 1   
    32   30   33 1   
    33   30   38 1   
    34   31   32 2   
    35   31   41 1   
    36   33   34 1   
    37   33   39 1   
    38   33   40 1   
    39   34   35 1   
    40   34   36 1   
    41   41   42 1   
    42   41   45 1   
    43   42   43 1   
    44   42   46 1   
    45   42   47 1   
    46   43   44 2   
    47   43   48 1   
    48   48   49 1   
    49   48   56 1   
    50   49   50 1   
    51   49   52 1   
    52   49   57 1   
    53   50   51 2   
    54   50   62 1   
    55   52   53 1   
    56   52   58 1   
    57   52   59 1   
    58   53   54 1   
    59   53   55 2   
    60   54   60 1   
    61   54   61 1   
    62   62   63 1   
    63   62   66 1   
    64   63   64 1   
    65   63   67 1   
    66   63   68 1   
    67   64   65 2   
    68   64   69 1   
    69   69   70 1   
    70   69   76 1   
    71   70   71 1   
    72   70   73 1   
    73   70   77 1   
    74   71   72 2   
    75   71   83 1   
    76   73   74 1   
    77   73   75 1   
    78   73   78 1   
    79   74   80 1   
    80   74   81 1   
    81   74   82 1   
    82   75   79 1   
    83   83   84 1   
    84   83   91 1   
    85   84   85 1   
    86   84   87 1   
    87   84   92 1   
    88   85   86 2   
    89   85  102 1   
    90   87   88 1   
    91   87   89 1   
    92   87   93 1   
    93   88   90 1   
    94   88   94 1   
    95   88   95 1   
    96   89   96 1   
    97   89   97 1   
    98   89   98 1   
    99   90   99 1   
   100   90  100 1   
   101   90  101 1   
   102  102  103 1   
   103  102  110 1   
   104  103  104 1   
   105  103  106 1   
   106  103  111 1   
   107  104  105 2   
   108  104  114 1   
   109  106  107 1   
   110  106  112 1   
   111  106  113 1   
   112  107  108 1   
   113  107  109 1   
   114  114  115 1   
   115  114  125 1   
   116  115  116 1   
   117  115  118 1   
   118  115  126 1   
   119  116  117 2   
   120  116  134 1   
   121  118  119 1   
   122  118  127 1   
   123  118  128 1   
   124  119  120 ar  
   125  119  121 ar  
   126  120  122 ar  
   127  120  129 1   
   128  121  123 ar  
   129  121  130 1   
   130  122  124 ar  
   131  122  131 1   
   132  123  124 ar  
   133  123  132 1   
   134  124  133 1   
   135  134  135 1   
   136  134  140 1   
   137  135  136 1   
   138  135  138 1   
   139  135  141 1   
   140  136  137 2   
   141  136  148 1   
   142  138  139 1   
   143  138  142 1   
   144  138  143 1   
   145  139  140 1   
   146  139  144 1   
   147  139  145 1   
   148  140  146 1   
   149  140  147 1   
   150  148  149 1   
   151  148  157 1   
   152  149  150 1   
   153  149  152 1   
   154  149  158 1   
   155  150  151 2   
   156  150  163 1   
   157  152  153 1   
   158  152  159 1   
   159  152  160 1   
   160  153  154 1   
   161  153  161 1   
   162  153  162 1   
   163  154  155 1   
   164  154  156 1   
   165  163  164 1   
   166  163  168 1   
   167  164  165 1   
   168  164  166 1   
   169  164  167 1   
   170  170  171 1   
   171  170  172 1   
   172  173  174 1   
   173  173  175 1   
   174  176  177 1   
   175  176  178 1   
   176  179  180 1   
   177  179  181 1   
   178  182  183 1   
   179  182  184 1   
   180  185  186 1   
   181  185  187 1   
@<TRIPOS>SUBSTRUCTURE
     1 MOL         1 TEMP              0 ****  ****    0 ROOT
