@<TRIPOS>MOLECULE
MOL
  175   173     1     0     0
SMALL
resp


@<TRIPOS>ATOM
      1 C1         -6.8100    7.8070    2.5610 c3        1 MOL     -0.424140
      2 C2         -7.3500    7.0220    1.3990 c         1 MOL      0.688402
      3 O1         -7.1070    7.3870    0.2620 o         1 MOL     -0.562051
      4 H1         -5.7820    7.5050    2.7560 hc        1 MOL      0.102038
      5 H2         -6.8380    8.8710    2.3250 hc        1 MOL      0.102038
      6 H3         -7.4180    7.6150    3.4450 hc        1 MOL      0.102038
      7 N1         -8.1140    5.8940    1.6440 n         1 MOL     -0.453521
      8 C3         -8.8950    5.2010    0.5260 c3        1 MOL     -0.054323
      9 C4         -8.0010    4.5890   -0.5510 c         1 MOL      0.518988
     10 O2         -8.4780    4.1280   -1.5250 o         1 MOL     -0.501112
     11 C5         -9.7170    4.0440    1.1610 c3        1 MOL     -0.318646
     12 C6        -10.8420    3.5520    0.3210 c         1 MOL      0.781292
     13 O3        -10.9180    2.3970   -0.1690 o         1 MOL     -0.727197
     14 O4        -11.9230    4.2060    0.2550 o         1 MOL     -0.727197
     15 H4         -8.2340    5.5850    2.5970 hn        1 MOL      0.282552
     16 H5         -9.5270    5.9770    0.0830 h1        1 MOL      0.102486
     17 H6        -10.0850    4.3730    2.1270 hc        1 MOL      0.069451
     18 H7         -9.0700    3.2100    1.4480 hc        1 MOL      0.069451
     19 N2         -6.7680    4.2570   -0.1920 n         1 MOL     -0.431504
     20 C7         -5.8510    3.4970   -1.0030 c3        1 MOL      0.491787
     21 C8         -4.8360    2.8490   -0.0280 c         1 MOL      0.254925
     22 O5         -4.3360    3.5130    0.8860 o         1 MOL     -0.498367
     23 C9         -5.1920    4.3100   -2.0370 c3        1 MOL     -0.208070
     24 H8         -6.4340    4.6420    0.6730 hn        1 MOL      0.195169
     25 H9         -6.4590    2.7360   -1.5000 h1        1 MOL     -0.053277
     26 H10        -5.9150    4.7110   -2.7540 hc        1 MOL      0.050481
     27 H11        -4.6490    5.1460   -1.5900 hc        1 MOL      0.050481
     28 H12        -4.6000    3.6870   -2.7150 hc        1 MOL      0.050481
     29 N3         -4.2570    1.6780   -0.3040 n         1 MOL     -0.256606
     30 C10        -4.6810    0.6790   -1.3360 c3        1 MOL     -0.227117
     31 C11        -4.9630   -0.7400   -0.7440 c         1 MOL      0.487576
     32 O6         -4.1790   -1.4690   -0.1510 o         1 MOL     -0.444957
     33 C12        -3.5770    0.5380   -2.3590 c3        1 MOL     -0.092712
     34 C13        -2.2130   -0.0210   -1.9460 c         1 MOL      0.610691
     35 O7         -1.8950   -1.1940   -2.3740 o         1 MOL     -0.712336
     36 O8         -1.4550    0.4720   -1.0920 o         1 MOL     -0.712336
     37 H13        -3.6350    1.3210    0.4060 hn        1 MOL      0.315069
     38 H14        -5.4350    1.1190   -1.9890 h1        1 MOL      0.163846
     39 H15        -3.4910    1.5190   -2.8320 hc        1 MOL      0.034284
     40 H16        -3.9530   -0.1440   -3.1210 hc        1 MOL      0.034284
     41 N4         -6.2500   -1.1370   -0.9400 n         1 MOL     -0.450083
     42 C14        -6.7330   -2.4930   -0.6770 c3        1 MOL      0.153503
     43 C15        -6.8380   -3.3790   -1.9860 c         1 MOL      0.475009
     44 O9         -7.9240   -3.3160   -2.5980 o         1 MOL     -0.524155
     45 H17        -6.8340   -0.5290   -1.4950 hn        1 MOL      0.318705
     46 H18        -7.7330   -2.4030   -0.2450 h1        1 MOL      0.024645
     47 H19        -6.0850   -2.9920    0.0440 h1        1 MOL      0.024645
     48 N5         -5.8170   -4.1850   -2.3970 n         1 MOL     -0.522365
     49 C16        -4.5180   -4.3270   -1.7090 c3        1 MOL      0.158919
     50 C17        -4.5220   -5.2970   -0.5430 c         1 MOL      0.431068
     51 O10        -5.1950   -6.3410   -0.4860 o         1 MOL     -0.530155
     52 C18        -3.4500   -4.8390   -2.6670 c3        1 MOL     -0.346963
     53 C19        -2.0320   -4.9090   -2.1790 c         1 MOL      0.745278
     54 N6         -1.3780   -5.9350   -2.5110 n         1 MOL     -0.682989
     55 O11        -1.4850   -4.0410   -1.4930 o         1 MOL     -0.715879
     56 H20        -5.9470   -4.7030   -3.2580 hn        1 MOL      0.326270
     57 H21        -4.1940   -3.3100   -1.4770 h1        1 MOL      0.183256
     58 H22        -3.4460   -4.0910   -3.4690 hc        1 MOL      0.089311
     59 H23        -3.8170   -5.7390   -3.1550 hc        1 MOL      0.089311
     60 H24        -1.7650   -6.7560   -2.9430 hn        1 MOL      0.342085
     61 H25        -0.3850   -5.9980   -2.3140 hn        1 MOL      0.342085
     62 N7         -3.6730   -4.9050    0.4380 n         1 MOL     -0.162067
     63 C20        -3.4870   -5.4570    1.7600 c3        1 MOL     -0.179943
     64 C21        -2.0720   -5.5660    2.3590 c         1 MOL      0.549166
     65 O12        -1.9640   -6.2280    3.3790 o         1 MOL     -0.591197
     66 H26        -3.3420   -3.9550    0.3530 hn        1 MOL      0.166364
     67 H27        -3.9500   -6.4480    1.7760 h1        1 MOL      0.094260
     68 H28        -4.0140   -4.8950    2.5290 h1        1 MOL      0.094260
     69 N8         -1.0700   -5.1150    1.6780 n         1 MOL     -0.217772
     70 C22         0.3220   -5.3910    2.0490 c3        1 MOL     -0.052851
     71 C23         1.1450   -4.0760    2.0530 c         1 MOL      0.446587
     72 O13         0.7320   -3.1890    1.3170 o         1 MOL     -0.484296
     73 C24         1.0470   -6.3680    1.0850 c3        1 MOL      0.475773
     74 C25         0.3790   -7.7230    1.3190 c3        1 MOL     -0.349557
     75 O14         0.9850   -6.0440   -0.3230 oh        1 MOL     -0.622635
     76 H29        -1.2670   -4.5910    0.8390 hn        1 MOL      0.077340
     77 H30         0.3470   -5.8880    3.0100 h1        1 MOL      0.049163
     78 H31         2.0460   -6.4780    1.4980 h1        1 MOL     -0.043650
     79 H32         1.1510   -5.0960   -0.3140 ho        1 MOL      0.439582
     80 H33         0.6550   -8.2530    2.2230 hc        1 MOL      0.081607
     81 H34        -0.7080   -7.7460    1.2400 hc        1 MOL      0.081607
     82 H35         0.7030   -8.4230    0.5550 hc        1 MOL      0.081607
     83 N9          2.2070   -4.0250    2.7700 n         1 MOL     -0.403254
     84 C26         3.1290   -2.8510    2.7080 c3        1 MOL      0.012948
     85 C27         4.0000   -3.0990    1.4570 c         1 MOL      0.152246
     86 O15         4.4090   -4.2550    1.1990 o         1 MOL     -0.451132
     87 C28         3.8730   -2.6910    4.0090 c3        1 MOL      0.201738
     88 C29         5.0790   -1.7310    3.8390 c3        1 MOL     -0.009074
     89 C30         3.0420   -2.1950    5.2710 c3        1 MOL     -0.376564
     90 C31         4.7770   -0.3050    3.4280 c3        1 MOL     -0.164708
     91 H36         2.5300   -4.8490    3.2590 hn        1 MOL      0.292924
     92 H37         2.5880   -1.9170    2.5190 h1        1 MOL      0.139913
     93 H38         4.3340   -3.6150    4.3480 hc        1 MOL     -0.010479
     94 H39         5.8880   -2.0970    3.2020 hc        1 MOL      0.011627
     95 H40         5.6300   -1.7480    4.7820 hc        1 MOL      0.011627
     96 H41         2.6410   -1.2580    4.8940 hc        1 MOL      0.097206
     97 H42         2.2880   -2.9500    5.4650 hc        1 MOL      0.097206
     98 H43         3.6400   -2.0360    6.1630 hc        1 MOL      0.097206
     99 H44         4.1370    0.1680    4.1720 hc        1 MOL      0.030652
    100 H45         5.7010    0.2650    3.3110 hc        1 MOL      0.030652
    101 H46         4.3150   -0.2210    2.4470 hc        1 MOL      0.030652
    102 N10         4.2170   -2.1640    0.5080 n         1 MOL     -0.100471
    103 C32         5.0060   -2.3400   -0.6990 c3        1 MOL     -0.044821
    104 C33         6.0390   -1.2490   -1.1170 c         1 MOL      0.588956
    105 O16         6.6330   -1.4970   -2.1410 o         1 MOL     -0.546569
    106 C34         4.0080   -2.6750   -1.8680 c3        1 MOL     -0.062010
    107 C35         3.0110   -3.8510   -1.5600 c         1 MOL      0.533014
    108 O17         3.3860   -4.9770   -1.9520 o         1 MOL     -0.617666
    109 O18         1.8780   -3.5900   -1.0890 o         1 MOL     -0.617666
    110 H47         3.7460   -1.2840    0.6330 hn        1 MOL      0.173298
    111 H48         5.5890   -3.2570   -0.5620 h1        1 MOL      0.108856
    112 H49         4.5030   -3.0110   -2.7820 hc        1 MOL      0.011202
    113 H50         3.3940   -1.7980   -2.0570 hc        1 MOL      0.011202
    114 N11         6.1930   -0.0890   -0.4570 n         1 MOL     -0.644459
    115 C36         6.8120    1.1070   -0.9920 c3        1 MOL      0.463594
    116 C37         6.1490    2.4100   -0.5110 c         1 MOL      0.227685
    117 O19         6.0000    2.5830    0.6850 o         1 MOL     -0.445683
    118 C38         8.3270    1.0470   -0.7290 c3        1 MOL     -0.274427
    119 C39         9.1890    2.1680   -1.2180 ca        1 MOL      0.064352
    120 C40         9.2560    3.3660   -0.4510 ca        1 MOL     -0.132392
    121 C41         9.8470    2.1740   -2.4500 ca        1 MOL     -0.132392
    122 C42         9.9490    4.4770   -0.9370 ca        1 MOL     -0.115718
    123 C43        10.5900    3.2290   -2.9580 ca        1 MOL     -0.115718
    124 C44        10.6220    4.4080   -2.2120 ca        1 MOL     -0.141123
    125 H51         5.4450    0.0680    0.2060 hn        1 MOL      0.299517
    126 H52         6.6520    1.1820   -2.0660 h1        1 MOL     -0.071534
    127 H53         8.8250    0.1550   -1.1040 hc        1 MOL      0.109838
    128 H54         8.4910    0.9840    0.3510 hc        1 MOL      0.109838
    129 H55         8.6900    3.4960    0.4550 ha        1 MOL      0.103541
    130 H56         9.7530    1.2700   -3.0410 ha        1 MOL      0.103541
    131 H57         9.9630    5.3730   -0.3220 ha        1 MOL      0.110262
    132 H58        11.0280    3.1700   -3.9480 ha        1 MOL      0.110262
    133 H59        11.2420    5.2430   -2.5250 ha        1 MOL      0.100835
    134 N12         5.8450    3.4020   -1.4050 n         1 MOL      0.007146
    135 C45         5.4270    4.7250   -1.0450 c3        1 MOL      0.004791
    136 C46         4.2120    4.9520   -0.0970 c         1 MOL      0.212573
    137 O20         4.1550    6.0610    0.5800 o         1 MOL     -0.486361
    138 C47         4.9330    5.2850   -2.4120 c3        1 MOL     -0.026844
    139 C48         6.0500    4.8110   -3.3270 c3        1 MOL     -0.219280
    140 C49         6.2450    3.4100   -2.7810 c3        1 MOL     -0.061700
    141 H60         6.2980    5.2920   -0.7230 h1        1 MOL      0.091631
    142 H61         4.0550    4.7380   -2.7730 hc        1 MOL      0.060817
    143 H62         4.7930    6.3720   -2.3650 hc        1 MOL      0.060817
    144 H63         5.8560    4.7690   -4.4010 hc        1 MOL      0.083086
    145 H64         6.8810    5.4110   -2.9590 hc        1 MOL      0.083086
    146 H65         5.5110    2.7710   -3.2620 h1        1 MOL      0.079112
    147 H66         7.2910    3.1270   -2.8960 h1        1 MOL      0.079112
    148 N13         3.3640    3.9680    0.1570 n         1 MOL     -0.060809
    149 C50         2.2490    4.0770    1.0780 c3        1 MOL     -0.283724
    150 C51         2.6530    4.5010    2.5250 c         1 MOL      0.507615
    151 O21         1.8300    5.2200    3.1540 o         1 MOL     -0.547241
    152 C52         1.3990    2.8070    1.1210 c3        1 MOL     -0.061301
    153 C53         2.1940    1.4980    1.6710 c3        1 MOL     -0.097809
    154 C54         1.5300    0.2490    1.1360 c         1 MOL      0.629932
    155 O22         1.9840   -0.3040    0.1400 o         1 MOL     -0.707082
    156 O23         0.3790   -0.0710    1.5310 o         1 MOL     -0.707082
    157 H67         3.4880    3.1030   -0.3540 hn        1 MOL      0.160094
    158 H68         1.6070    4.8970    0.7810 h1        1 MOL      0.166084
    159 H69         0.9420    2.5740    0.1650 hc        1 MOL      0.101412
    160 H70         0.5180    2.9150    1.7560 hc        1 MOL      0.101412
    161 H71         2.1820    1.4570    2.7570 hc        1 MOL      0.016400
    162 H72         3.2430    1.5330    1.3950 hc        1 MOL      0.016400
    163 N14         3.8310    4.1210    2.9800 n         1 MOL     -0.154428
    164 C55         4.2280    4.4460    4.3450 c3        1 MOL     -0.074284
    165 H73         4.9740    5.2410    4.3270 h1        1 MOL      0.054997
    166 H74         3.3570    4.7800    4.9080 h1        1 MOL      0.054997
    167 H75         4.6520    3.5620    4.8210 h1        1 MOL      0.054997
    168 H76         4.3670    3.5670    2.3340 hn        1 MOL      0.182390
    169 Ca1         0.0910   -1.7450   -0.7550 Ca        1 MOL      1.752611
    170 O24         1.4090   -1.1600   -3.0610 oh        1 MOL     -0.823819
    171 H77         2.3280   -0.9750   -3.2680 ho        1 MOL      0.399587
    172 H78         1.1270   -1.7690   -3.7450 ho        1 MOL      0.399587
    173 O25        -1.9980   -2.0750    0.9840 oh        1 MOL     -0.823819
    174 H79        -1.7320   -1.4740    1.6800 ho        1 MOL      0.399587
    175 H80        -2.9560   -1.9750    0.9340 ho        1 MOL      0.399587
@<TRIPOS>BOND
     1    1    2 1   
     2    1    4 1   
     3    1    5 1   
     4    1    6 1   
     5    2    3 2   
     6    2    7 1   
     7    7    8 1   
     8    7   15 1   
     9    8    9 1   
    10    8   11 1   
    11    8   16 1   
    12    9   10 2   
    13    9   19 1   
    14   11   12 1   
    15   11   17 1   
    16   11   18 1   
    17   12   13 1   
    18   12   14 1   
    19   19   20 1   
    20   19   24 1   
    21   20   21 1   
    22   20   23 1   
    23   20   25 1   
    24   21   22 2   
    25   21   29 1   
    26   23   26 1   
    27   23   27 1   
    28   23   28 1   
    29   29   30 1   
    30   29   37 1   
    31   30   31 1   
    32   30   33 1   
    33   30   38 1   
    34   31   32 2   
    35   31   41 1   
    36   33   34 1   
    37   33   39 1   
    38   33   40 1   
    39   34   35 1   
    40   34   36 1   
    41   41   42 1   
    42   41   45 1   
    43   42   43 1   
    44   42   46 1   
    45   42   47 1   
    46   43   44 2   
    47   43   48 1   
    48   48   49 1   
    49   48   56 1   
    50   49   50 1   
    51   49   52 1   
    52   49   57 1   
    53   50   51 2   
    54   50   62 1   
    55   52   53 1   
    56   52   58 1   
    57   52   59 1   
    58   53   54 1   
    59   53   55 2   
    60   54   60 1   
    61   54   61 1   
    62   62   63 1   
    63   62   66 1   
    64   63   64 1   
    65   63   67 1   
    66   63   68 1   
    67   64   65 2   
    68   64   69 1   
    69   69   70 1   
    70   69   76 1   
    71   70   71 1   
    72   70   73 1   
    73   70   77 1   
    74   71   72 2   
    75   71   83 1   
    76   73   74 1   
    77   73   75 1   
    78   73   78 1   
    79   74   80 1   
    80   74   81 1   
    81   74   82 1   
    82   75   79 1   
    83   83   84 1   
    84   83   91 1   
    85   84   85 1   
    86   84   87 1   
    87   84   92 1   
    88   85   86 2   
    89   85  102 1   
    90   87   88 1   
    91   87   89 1   
    92   87   93 1   
    93   88   90 1   
    94   88   94 1   
    95   88   95 1   
    96   89   96 1   
    97   89   97 1   
    98   89   98 1   
    99   90   99 1   
   100   90  100 1   
   101   90  101 1   
   102  102  103 1   
   103  102  110 1   
   104  103  104 1   
   105  103  106 1   
   106  103  111 1   
   107  104  105 2   
   108  104  114 1   
   109  106  107 1   
   110  106  112 1   
   111  106  113 1   
   112  107  108 1   
   113  107  109 1   
   114  114  115 1   
   115  114  125 1   
   116  115  116 1   
   117  115  118 1   
   118  115  126 1   
   119  116  117 2   
   120  116  134 1   
   121  118  119 1   
   122  118  127 1   
   123  118  128 1   
   124  119  120 ar  
   125  119  121 ar  
   126  120  122 ar  
   127  120  129 1   
   128  121  123 ar  
   129  121  130 1   
   130  122  124 ar  
   131  122  131 1   
   132  123  124 ar  
   133  123  132 1   
   134  124  133 1   
   135  134  135 1   
   136  134  140 1   
   137  135  136 1   
   138  135  138 1   
   139  135  141 1   
   140  136  137 2   
   141  136  148 1   
   142  138  139 1   
   143  138  142 1   
   144  138  143 1   
   145  139  140 1   
   146  139  144 1   
   147  139  145 1   
   148  140  146 1   
   149  140  147 1   
   150  148  149 1   
   151  148  157 1   
   152  149  150 1   
   153  149  152 1   
   154  149  158 1   
   155  150  151 2   
   156  150  163 1   
   157  152  153 1   
   158  152  159 1   
   159  152  160 1   
   160  153  154 1   
   161  153  161 1   
   162  153  162 1   
   163  154  155 1   
   164  154  156 1   
   165  163  164 1   
   166  163  168 1   
   167  164  165 1   
   168  164  166 1   
   169  164  167 1   
   170  170  171 1   
   171  170  172 1   
   172  173  174 1   
   173  173  175 1   
@<TRIPOS>SUBSTRUCTURE
     1 MOL         1 TEMP              0 ****  ****    0 ROOT
