@<TRIPOS>MOLECULE
MOL
  192   187     1     0     0
SMALL
resp


@<TRIPOS>ATOM
      1 C1         10.2810    0.4220    1.5600 c3        1 MOL     -0.556489
      2 C2          9.0130    0.1620    0.7270 c         1 MOL      0.861882
      3 O1          7.9300    0.4150    1.2490 o         1 MOL     -0.708395
      4 H1         10.7080    1.3850    1.2800 hc        1 MOL      0.134083
      5 H2         10.0240    0.4320    2.6200 hc        1 MOL      0.134083
      6 H3         11.0090   -0.3670    1.3700 hc        1 MOL      0.134083
      7 N1          9.0390   -0.2640   -0.5200 n         1 MOL     -0.555543
      8 C3          7.8340   -0.1150   -1.3550 c3        1 MOL     -0.009140
      9 C4          6.9990   -1.3560   -1.4120 c         1 MOL      0.540168
     10 O2          6.5620   -1.8140   -2.4620 o         1 MOL     -0.461516
     11 C5          8.4830    0.2500   -2.7250 c3        1 MOL     -0.127225
     12 C6          9.6050   -0.6700   -3.2880 c         1 MOL      0.727107
     13 O3          9.9590   -0.2810   -4.3880 o         1 MOL     -0.657786
     14 O4         10.0730   -1.6360   -2.7010 o         1 MOL     -0.657786
     15 H4          9.8160   -0.7650   -0.9320 hn        1 MOL      0.244516
     16 H5          7.1760    0.7000   -1.0800 h1        1 MOL      0.080572
     17 H6          8.8020    1.2870   -2.6230 hc        1 MOL      0.038837
     18 H7          7.6870    0.3090   -3.4700 hc        1 MOL      0.038837
     19 N2          6.9360   -1.9590   -0.2240 n         1 MOL     -0.462374
     20 C7          6.4180   -3.3550   -0.0340 c3        1 MOL      0.259978
     21 C8          4.9920   -3.5720   -0.5330 c         1 MOL      0.409504
     22 O5          4.8130   -4.5130   -1.3130 o         1 MOL     -0.531492
     23 C9          6.5160   -3.9220    1.4280 c3        1 MOL     -0.113607
     24 C10         8.0860   -3.9930    1.8800 c3        1 MOL     -0.254257
     25 C11         8.2980   -4.3170    3.3680 c3        1 MOL      0.027977
     26 C12         9.7870   -4.3610    3.7640 c3        1 MOL      0.089536
     27 N3         10.0930   -4.2750    5.2280 n4        1 MOL     -0.339330
     28 H8          7.1860   -1.3520    0.5390 hn        1 MOL      0.254855
     29 H9          6.9790   -4.0930   -0.6080 h1        1 MOL      0.038965
     30 H10         6.0510   -4.9050    1.3870 hc        1 MOL      0.072912
     31 H11         5.9960   -3.2550    2.1180 hc        1 MOL      0.072912
     32 H12         8.6310   -3.0790    1.6380 hc        1 MOL      0.090310
     33 H13         8.5330   -4.8680    1.4010 hc        1 MOL      0.090310
     34 H14         7.8140   -5.2680    3.6270 hc        1 MOL      0.028738
     35 H15         7.8330   -3.5680    4.0040 hc        1 MOL      0.028738
     36 H16        10.3910   -3.5790    3.2980 hx        1 MOL      0.065757
     37 H17        10.1830   -5.3170    3.4100 hx        1 MOL      0.065757
     38 H18         9.5370   -3.5170    5.6170 hn        1 MOL      0.281686
     39 H19         9.9370   -5.1100    5.7570 hn        1 MOL      0.281686
     40 H20        11.0720   -4.0710    5.3800 hn        1 MOL      0.281686
     41 N4          3.9260   -2.8220   -0.2020 n         1 MOL     -0.419081
     42 C13         4.0030   -1.6000    0.5420 c3        1 MOL      0.066236
     43 C14         3.7510   -0.3570   -0.3100 c         1 MOL      0.146334
     44 O6          3.3180   -0.5470   -1.4610 o         1 MOL     -0.377532
     45 C15         2.9440   -1.5690    1.6990 c3        1 MOL     -0.142935
     46 C16         1.5650   -1.9750    1.2350 c         1 MOL      0.658874
     47 O7          1.0790   -1.3930    0.2030 o         1 MOL     -0.668669
     48 O8          1.0460   -2.8480    1.9850 o         1 MOL     -0.668669
     49 H21         3.0940   -3.0300   -0.7410 hn        1 MOL      0.369825
     50 H22         4.9870   -1.4730    0.9920 h1        1 MOL      0.074605
     51 H23         2.9520   -0.5650    2.1230 hc        1 MOL     -0.006905
     52 H24         3.3840   -2.1640    2.4980 hc        1 MOL     -0.006905
     53 N5          4.2580    0.8200    0.1110 n         1 MOL     -0.023784
     54 C17         4.1930    2.0980   -0.5600 c3        1 MOL     -0.256910
     55 C18         2.8050    2.5840   -1.1220 c         1 MOL      0.510617
     56 O9          1.7590    2.0360   -0.7780 o         1 MOL     -0.480829
     57 H25         4.6900    0.7960    1.0200 hn        1 MOL      0.220690
     58 H26         4.8430    1.9910   -1.4390 h1        1 MOL      0.098230
     59 H27         4.5990    2.8360    0.1200 h1        1 MOL      0.098230
     60 N6          2.8300    3.5420   -1.9590 n         1 MOL     -0.319213
     61 C19         1.7790    4.4540   -2.3080 c3        1 MOL      0.217245
     62 C20         2.3110    5.8920   -2.4660 c         1 MOL      0.388438
     63 O10         3.5020    6.0610   -2.6040 o         1 MOL     -0.509549
     64 C21         1.2270    4.0200   -3.7090 c3        1 MOL     -0.223858
     65 C22         0.5370    2.6330   -3.6850 c         1 MOL      0.687872
     66 O11        -0.4420    2.4380   -2.9530 o         1 MOL     -0.689397
     67 O12         1.1110    1.7230   -4.3150 o         1 MOL     -0.689397
     68 H28         3.7620    3.8090   -2.2250 hn        1 MOL      0.248809
     69 H29         1.0100    4.4850   -1.5460 h1        1 MOL      0.036392
     70 H30         1.9790    3.9230   -4.4950 hc        1 MOL      0.058776
     71 H31         0.5000    4.7900   -3.9610 hc        1 MOL      0.058776
     72 N7          1.5150    6.9910   -2.4030 n         1 MOL     -0.363956
     73 C23         0.0040    6.9500   -2.2220 c3        1 MOL     -0.154237
     74 C24        -0.5290    6.3330   -0.8700 c         1 MOL      0.545493
     75 O13         0.2340    6.3640    0.1450 o         1 MOL     -0.478898
     76 H32         2.0240    7.8450   -2.5810 hn        1 MOL      0.308197
     77 H33        -0.4640    6.5690   -3.1290 h1        1 MOL      0.098072
     78 H34        -0.3260    7.9970   -2.1780 h1        1 MOL      0.098072
     79 N8         -1.7450    5.6880   -0.8950 n         1 MOL     -0.569072
     80 C25        -2.4080    5.1710    0.3390 c3        1 MOL      0.061028
     81 C26        -1.7540    3.8860    0.8320 c         1 MOL      0.557864
     82 O14        -1.2460    3.0890    0.0400 o         1 MOL     -0.591921
     83 C27        -3.9570    4.9590    0.1740 c3        1 MOL      0.393580
     84 C28        -4.7490    4.6820    1.4350 c3        1 MOL     -0.433015
     85 O15        -4.2030    3.8070   -0.6950 oh        1 MOL     -0.636606
     86 H35        -2.2040    5.7450   -1.7980 hn        1 MOL      0.331557
     87 H36        -2.2770    5.9730    1.0620 h1        1 MOL      0.068583
     88 H37        -4.3940    5.8580   -0.2590 h1        1 MOL      0.008503
     89 H38        -5.1630    3.7360   -0.7330 ho        1 MOL      0.390312
     90 H39        -4.6740    5.5430    2.0920 hc        1 MOL      0.111766
     91 H40        -5.7520    4.4010    1.1020 hc        1 MOL      0.111766
     92 H41        -4.3540    3.8010    1.9420 hc        1 MOL      0.111766
     93 N9         -1.6330    3.6840    2.2010 n         1 MOL     -0.372789
     94 C29        -0.7830    2.6780    2.8400 c3        1 MOL     -0.173808
     95 C30        -1.3220    1.2600    2.6420 c         1 MOL      0.604778
     96 O16        -0.8530    0.6480    1.6680 o         1 MOL     -0.522408
     97 C31         0.7550    2.9040    2.6130 c3        1 MOL      0.398112
     98 C32         1.3960    4.3190    2.4700 c3        1 MOL     -0.157617
     99 C33         1.5540    2.0640    3.6830 c3        1 MOL     -0.535916
    100 C34         1.1180    5.2140    3.6970 c3        1 MOL     -0.192221
    101 H42        -2.0090    4.3580    2.8420 hn        1 MOL      0.269432
    102 H43        -1.0490    2.9030    3.8720 h1        1 MOL      0.050662
    103 H44         1.0820    2.4760    1.6600 hc        1 MOL     -0.106101
    104 H45         1.1120    4.8140    1.5430 hc        1 MOL      0.090087
    105 H46         2.4750    4.2240    2.3250 hc        1 MOL      0.090087
    106 H47         1.2820    2.2760    4.7130 hc        1 MOL      0.136674
    107 H48         1.4800    1.0030    3.4400 hc        1 MOL      0.136674
    108 H49         2.6310    2.1840    3.5150 hc        1 MOL      0.136674
    109 H50         0.0530    5.4080    3.5560 hc        1 MOL      0.042347
    110 H51         1.3680    4.6690    4.5960 hc        1 MOL      0.042347
    111 H52         1.6120    6.1840    3.6300 hc        1 MOL      0.042347
    112 N10        -2.1950    0.7730    3.5310 n         1 MOL     -0.526561
    113 C35        -2.6920   -0.6120    3.5470 c3        1 MOL     -0.057183
    114 C36        -4.0260   -0.7350    2.7800 c         1 MOL      0.417792
    115 O17        -4.3160   -1.8360    2.3960 o         1 MOL     -0.525397
    116 C37        -2.9180   -1.1340    4.9350 c3        1 MOL      0.510463
    117 C38        -4.1280   -0.4600    5.6610 c3        1 MOL     -0.148161
    118 O18        -1.7570   -1.0820    5.7800 oh        1 MOL     -0.661986
    119 H53        -2.5030    1.3830    4.2730 hn        1 MOL      0.323565
    120 H54        -2.0130   -1.2950    3.0390 h1        1 MOL      0.107531
    121 H55        -3.1860   -2.1900    4.8610 h1        1 MOL     -0.026930
    122 H56        -1.0090   -1.4600    5.3150 ho        1 MOL      0.406684
    123 H57        -3.8990   -0.4110    6.7280 hc        1 MOL      0.022359
    124 H58        -4.3500    0.5250    5.2540 hc        1 MOL      0.022359
    125 H59        -5.0290   -1.0500    5.4590 hc        1 MOL      0.022359
    126 N11        -4.6730    0.3260    2.3910 n         1 MOL     -0.052948
    127 C39        -6.0720    0.1900    1.9730 c3        1 MOL     -0.323996
    128 C40        -6.2210   -0.4610    0.5740 c         1 MOL      0.442097
    129 O19        -5.6320   -0.0430   -0.4400 o         1 MOL     -0.447974
    130 C41        -6.7140    1.5920    1.9560 c3        1 MOL      0.308779
    131 C42        -8.2100    1.6730    1.8850 c3        1 MOL     -0.413656
    132 O20        -6.3710    2.4870    3.0600 oh        1 MOL     -0.584933
    133 H60        -4.3450    1.2350    2.6860 hn        1 MOL      0.136471
    134 H61        -6.6420   -0.3270    2.7500 h1        1 MOL      0.142079
    135 H62        -6.4950    2.1590    1.0530 h1        1 MOL      0.068008
    136 H63        -6.8020    2.0540    3.7970 ho        1 MOL      0.395326
    137 H64        -8.5830    1.1010    2.7370 hc        1 MOL      0.114870
    138 H65        -8.5520    2.7110    1.9210 hc        1 MOL      0.114870
    139 H66        -8.5480    1.2460    0.9480 hc        1 MOL      0.114870
    140 N12        -7.0150   -1.5360    0.4910 n         1 MOL     -0.315489
    141 C43        -7.0300   -2.5230   -0.6180 c3        1 MOL      0.139438
    142 C44        -5.6480   -2.6050   -1.3200 c         1 MOL      0.500109
    143 O21        -5.6230   -2.2840   -2.5390 o         1 MOL     -0.543568
    144 C45        -8.2360   -2.2670   -1.5980 c3        1 MOL     -0.440408
    145 C46        -9.5370   -2.5780   -0.8010 c3        1 MOL      0.094530
    146 C47       -10.7560   -2.5520   -1.7310 c3        1 MOL      0.044087
    147 C48       -12.0560   -2.8100   -0.9700 c3        1 MOL      0.096799
    148 N13       -13.2480   -3.0340   -1.8660 n4        1 MOL     -0.161562
    149 H67        -7.4420   -1.9190    1.3200 hn        1 MOL      0.236747
    150 H68        -7.2090   -3.4800   -0.1310 h1        1 MOL      0.020394
    151 H69        -8.2020   -2.9940   -2.4030 hc        1 MOL      0.161629
    152 H70        -8.2430   -1.3020   -2.0990 hc        1 MOL      0.161629
    153 H71        -9.6000   -1.8450   -0.0070 hc        1 MOL      0.002007
    154 H72        -9.4230   -3.5740   -0.3620 hc        1 MOL      0.002007
    155 H73       -10.7720   -3.3480   -2.4790 hc        1 MOL      0.011617
    156 H74       -10.8260   -1.5910   -2.2400 hc        1 MOL      0.011617
    157 H75       -12.2440   -2.0410   -0.2190 hx        1 MOL      0.019393
    158 H76       -11.8410   -3.7380   -0.4520 hx        1 MOL      0.019393
    159 H77       -13.2180   -3.9850   -2.2090 hn        1 MOL      0.188683
    160 H78       -14.1210   -2.9920   -1.3690 hn        1 MOL      0.188683
    161 H79       -13.1830   -2.3840   -2.6390 hn        1 MOL      0.188683
    162 N14        -4.5550   -2.9680   -0.6630 n         1 MOL     -0.297623
    163 C49        -3.2130   -3.1190   -1.2080 c3        1 MOL      0.109482
    164 C50        -2.2210   -2.5570   -0.2800 c         1 MOL      0.298848
    165 O22        -1.8240   -1.3900   -0.3990 o         1 MOL     -0.436100
    166 C51        -3.0710   -4.5530   -1.7250 c3        1 MOL      0.097520
    167 C52        -3.8710   -4.7480   -2.9660 c3        1 MOL     -0.082721
    168 C53        -3.8490   -6.0200   -3.7010 c         1 MOL      0.649421
    169 O23        -4.5020   -7.0620   -3.3860 o         1 MOL     -0.616305
    170 O24        -2.9810   -6.0920   -4.6160 o         1 MOL     -0.616305
    171 H80        -4.6140   -3.1280    0.3280 hn        1 MOL      0.219605
    172 H81        -3.2050   -2.4840   -2.1020 h1        1 MOL      0.093893
    173 H82        -3.4500   -5.2490   -0.9790 hc        1 MOL     -0.005272
    174 H83        -2.0010   -4.7410   -1.8520 hc        1 MOL     -0.005272
    175 H84        -3.4950   -4.0390   -3.6980 hc        1 MOL     -0.006033
    176 H85        -4.9520   -4.7000   -2.7770 hc        1 MOL     -0.006033
    177 N15        -1.7070   -3.1990    0.7580 n         1 MOL     -0.247708
    178 C54        -2.0780   -4.5080    1.3790 c3        1 MOL     -0.052097
    179 H86        -3.1570   -4.6470    1.3150 h1        1 MOL      0.041832
    180 H87        -1.5760   -5.3180    0.8500 h1        1 MOL      0.041832
    181 H88        -1.7740   -4.5140    2.4260 h1        1 MOL      0.041832
    182 H89        -0.9770   -2.7060    1.2440 hn        1 MOL      0.293853
    183 Ca1        -0.6320    0.7470   -1.0730 Ca        1 MOL      1.745182
    184 O25        -1.7460   -0.4700   -3.1950 oh        1 MOL     -0.913849
    185 H90        -2.5880   -0.5360   -3.6480 ho        1 MOL      0.434580
    186 H91        -1.1620   -1.0500   -3.6790 ho        1 MOL      0.434580
    187 O26        -3.1930    1.2940   -0.8630 oh        1 MOL     -0.913849
    188 H92        -4.0850    0.9550   -0.9400 ho        1 MOL      0.434580
    189 H93        -3.2860    2.2470   -0.8680 ho        1 MOL      0.434580
    190 O27         1.1090   -0.4920   -2.7100 oh        1 MOL     -0.913849
    191 H94         1.1520    0.0590   -3.4900 ho        1 MOL      0.434580
    192 H95         2.0050   -0.8400   -2.6190 ho        1 MOL      0.434580
@<TRIPOS>BOND
     1    1    2 1   
     2    1    4 1   
     3    1    5 1   
     4    1    6 1   
     5    2    3 2   
     6    2    7 1   
     7    7    8 1   
     8    7   15 1   
     9    8    9 1   
    10    8   11 1   
    11    8   16 1   
    12    9   10 2   
    13    9   19 1   
    14   11   12 1   
    15   11   17 1   
    16   11   18 1   
    17   12   13 1   
    18   12   14 1   
    19   19   20 1   
    20   19   28 1   
    21   20   21 1   
    22   20   23 1   
    23   20   29 1   
    24   21   22 2   
    25   21   41 1   
    26   23   24 1   
    27   23   30 1   
    28   23   31 1   
    29   24   25 1   
    30   24   32 1   
    31   24   33 1   
    32   25   26 1   
    33   25   34 1   
    34   25   35 1   
    35   26   27 1   
    36   26   36 1   
    37   26   37 1   
    38   27   38 1   
    39   27   39 1   
    40   27   40 1   
    41   41   42 1   
    42   41   49 1   
    43   42   43 1   
    44   42   45 1   
    45   42   50 1   
    46   43   44 2   
    47   43   53 1   
    48   45   46 1   
    49   45   51 1   
    50   45   52 1   
    51   46   47 1   
    52   46   48 1   
    53   53   54 1   
    54   53   57 1   
    55   54   55 1   
    56   54   58 1   
    57   54   59 1   
    58   55   56 2   
    59   55   60 1   
    60   60   61 1   
    61   60   68 1   
    62   61   62 1   
    63   61   64 1   
    64   61   69 1   
    65   62   63 2   
    66   62   72 1   
    67   64   65 1   
    68   64   70 1   
    69   64   71 1   
    70   65   66 1   
    71   65   67 1   
    72   72   73 1   
    73   72   76 1   
    74   73   74 1   
    75   73   77 1   
    76   73   78 1   
    77   74   75 2   
    78   74   79 1   
    79   79   80 1   
    80   79   86 1   
    81   80   81 1   
    82   80   83 1   
    83   80   87 1   
    84   81   82 2   
    85   81   93 1   
    86   83   84 1   
    87   83   85 1   
    88   83   88 1   
    89   84   90 1   
    90   84   91 1   
    91   84   92 1   
    92   85   89 1   
    93   93   94 1   
    94   93  101 1   
    95   94   95 1   
    96   94   97 1   
    97   94  102 1   
    98   95   96 2   
    99   95  112 1   
   100   97   98 1   
   101   97   99 1   
   102   97  103 1   
   103   98  100 1   
   104   98  104 1   
   105   98  105 1   
   106   99  106 1   
   107   99  107 1   
   108   99  108 1   
   109  100  109 1   
   110  100  110 1   
   111  100  111 1   
   112  112  113 1   
   113  112  119 1   
   114  113  114 1   
   115  113  116 1   
   116  113  120 1   
   117  114  115 2   
   118  114  126 1   
   119  116  117 1   
   120  116  118 1   
   121  116  121 1   
   122  117  123 1   
   123  117  124 1   
   124  117  125 1   
   125  118  122 1   
   126  126  127 1   
   127  126  133 1   
   128  127  128 1   
   129  127  130 1   
   130  127  134 1   
   131  128  129 2   
   132  128  140 1   
   133  130  131 1   
   134  130  132 1   
   135  130  135 1   
   136  131  137 1   
   137  131  138 1   
   138  131  139 1   
   139  132  136 1   
   140  140  141 1   
   141  140  149 1   
   142  141  142 1   
   143  141  144 1   
   144  141  150 1   
   145  142  143 2   
   146  142  162 1   
   147  144  145 1   
   148  144  151 1   
   149  144  152 1   
   150  145  146 1   
   151  145  153 1   
   152  145  154 1   
   153  146  147 1   
   154  146  155 1   
   155  146  156 1   
   156  147  148 1   
   157  147  157 1   
   158  147  158 1   
   159  148  159 1   
   160  148  160 1   
   161  148  161 1   
   162  162  163 1   
   163  162  171 1   
   164  163  164 1   
   165  163  166 1   
   166  163  172 1   
   167  164  165 2   
   168  164  177 1   
   169  166  167 1   
   170  166  173 1   
   171  166  174 1   
   172  167  168 1   
   173  167  175 1   
   174  167  176 1   
   175  168  169 1   
   176  168  170 1   
   177  177  178 1   
   178  177  182 1   
   179  178  179 1   
   180  178  180 1   
   181  178  181 1   
   182  184  185 1   
   183  184  186 1   
   184  187  188 1   
   185  187  189 1   
   186  190  191 1   
   187  190  192 1   
@<TRIPOS>SUBSTRUCTURE
     1 MOL         1 TEMP              0 ****  ****    0 ROOT
