@<TRIPOS>MOLECULE
MOL
  189   185     1     0     0
SMALL
resp


@<TRIPOS>ATOM
      1 C1          4.1000    4.2020   -3.6600 c3        1 MOL     -0.235115
      2 C2          4.9370    3.4760   -2.5270 c         1 MOL      0.698898
      3 O1          4.4260    3.3420   -1.3940 o         1 MOL     -0.554447
      4 H1          3.0920    4.4000   -3.2950 hc        1 MOL      0.055676
      5 H2          4.5830    5.1430   -3.9230 hc        1 MOL      0.055676
      6 H3          4.0480    3.5630   -4.5410 hc        1 MOL      0.055676
      7 N1          6.1500    2.9900   -2.8630 n         1 MOL     -0.741048
      8 C3          6.8430    1.8040   -2.2580 c3        1 MOL      0.241174
      9 C4          5.7970    0.6720   -1.9770 c         1 MOL      0.341765
     10 O2          5.2170    0.5510   -0.8790 o         1 MOL     -0.609148
     11 C5          7.6920    2.1020   -1.0420 c3        1 MOL     -0.077950
     12 C6          7.2910    3.2990   -0.1820 c         1 MOL      0.719041
     13 O3          6.5170    2.9760    0.7590 o         1 MOL     -0.708625
     14 O4          7.9140    4.3760   -0.1440 o         1 MOL     -0.708625
     15 H4          6.5080    3.2520   -3.7660 hn        1 MOL      0.344601
     16 H5          7.5040    1.3570   -2.9890 h1        1 MOL      0.023622
     17 H6          8.6950    2.3040   -1.4140 hc        1 MOL      0.011024
     18 H7          7.7620    1.1700   -0.4710 hc        1 MOL      0.011024
     19 N2          5.5630   -0.1550   -3.0230 n         1 MOL     -0.384786
     20 C7          4.7530   -1.4030   -2.9410 c3        1 MOL      0.101140
     21 C8          5.4720   -2.5340   -2.2050 c         1 MOL      0.349481
     22 O5          5.9450   -3.4340   -2.8980 o         1 MOL     -0.553256
     23 C9          3.2180   -1.2540   -2.6210 c3        1 MOL      0.280589
     24 C10         2.4320   -2.5510   -2.9340 c3        1 MOL     -0.297836
     25 C11         2.5080   -0.1240   -3.3790 c3        1 MOL     -0.246701
     26 C12         2.5550   -3.2760   -4.2500 c3        1 MOL     -0.015503
     27 H8          5.9690    0.1460   -3.8900 hn        1 MOL      0.267591
     28 H9          4.6930   -1.7670   -3.9660 h1        1 MOL      0.029261
     29 H10         3.1360   -1.1590   -1.5380 hc        1 MOL     -0.116366
     30 H11         1.4030   -2.2740   -2.7110 hc        1 MOL      0.099038
     31 H12         2.7560   -3.2540   -2.1660 hc        1 MOL      0.099038
     32 H13         2.4610   -0.2430   -4.4560 hc        1 MOL      0.054445
     33 H14         1.4840   -0.1840   -3.0210 hc        1 MOL      0.054445
     34 H15         3.1210    0.7720   -3.2280 hc        1 MOL      0.054445
     35 H16         3.5890   -3.4740   -4.5440 hc        1 MOL      0.001405
     36 H17         1.9840   -4.2140   -4.2950 hc        1 MOL      0.001405
     37 H18         2.1240   -2.7400   -5.0830 hc        1 MOL      0.001405
     38 N3          5.6860   -2.4520   -0.9160 n         1 MOL     -0.060255
     39 C13         6.6180   -3.3450   -0.2090 c3        1 MOL     -0.011160
     40 C14         5.9060   -4.7420   -0.1730 c         1 MOL      0.598606
     41 O6          6.5880   -5.7150   -0.3840 o         1 MOL     -0.584247
     42 C15         6.9350   -2.8340    1.2210 c3        1 MOL     -0.272267
     43 C16         7.7890   -1.5870    1.1630 c         1 MOL      0.763262
     44 O7          8.6270   -1.3800    0.2150 o         1 MOL     -0.721911
     45 O8          7.6770   -0.8310    2.1240 o         1 MOL     -0.721911
     46 H19         5.3790   -1.5830   -0.5120 hn        1 MOL      0.240542
     47 H20         7.5000   -3.5030   -0.8350 h1        1 MOL      0.061060
     48 H21         7.4740   -3.6150    1.7630 hc        1 MOL      0.099863
     49 H22         6.0250   -2.6200    1.7960 hc        1 MOL      0.099863
     50 N4          4.6000   -4.9320    0.1760 n         1 MOL     -0.584995
     51 C17         3.7000   -4.0130    0.8590 c3        1 MOL      0.190903
     52 C18         4.0120   -4.0060    2.4040 c         1 MOL      0.450906
     53 O9          4.8620   -4.6830    2.8880 o         1 MOL     -0.522792
     54 H23         4.2760   -5.8670   -0.0330 hn        1 MOL      0.292235
     55 H24         2.6970   -4.4060    0.7420 h1        1 MOL      0.017001
     56 H25         3.7360   -3.0160    0.4280 h1        1 MOL      0.017001
     57 N5          3.4080   -3.1160    3.1830 n         1 MOL     -0.517916
     58 C19         2.2150   -2.3070    2.8930 c3        1 MOL      0.229220
     59 C20         2.2620   -1.3030    1.7240 c         1 MOL      0.379438
     60 O10         3.3110   -0.7290    1.4420 o         1 MOL     -0.551030
     61 C21         1.8050   -1.5800    4.2220 c3        1 MOL     -0.299501
     62 C22         2.8410   -0.8880    5.1130 c         1 MOL      0.764849
     63 O11         2.8430    0.3420    5.1270 o         1 MOL     -0.702643
     64 O12         3.7710   -1.5650    5.6670 o         1 MOL     -0.702643
     65 H26         3.8820   -2.9430    4.0670 hn        1 MOL      0.325418
     66 H27         1.3450   -2.9320    2.7070 h1        1 MOL     -0.001809
     67 H28         1.2440   -2.2570    4.8680 hc        1 MOL      0.043356
     68 H29         1.0740   -0.8460    3.8730 hc        1 MOL      0.043356
     69 N6          1.2050   -0.9470    1.0160 n         1 MOL     -0.167192
     70 C23        -0.1430   -1.3500    1.2500 c3        1 MOL     -0.229050
     71 C24        -0.4930   -2.7260    0.6680 c         1 MOL      0.581866
     72 O13         0.3270   -3.3950    0.0910 o         1 MOL     -0.538078
     73 H30         1.4160   -0.2480    0.3260 hn        1 MOL      0.286409
     74 H31        -0.8470   -0.7010    0.7290 h1        1 MOL      0.093208
     75 H32        -0.3600   -1.2590    2.3140 h1        1 MOL      0.093208
     76 N7         -1.7810   -3.0270    0.6450 n         1 MOL     -0.411815
     77 C25        -2.3500   -4.1950   -0.0200 c3        1 MOL      0.012848
     78 C26        -3.0610   -3.9580   -1.3780 c         1 MOL      0.501660
     79 O14        -3.3450   -4.9090   -2.0380 o         1 MOL     -0.543041
     80 C27        -3.2190   -5.1100    0.9720 c3        1 MOL     -0.014325
     81 C28        -4.3420   -4.4520    1.7420 c3        1 MOL     -0.397801
     82 C29        -5.4870   -4.0280    0.7730 c         1 MOL      0.299382
     83 N8         -6.2720   -4.9730    0.3180 n         1 MOL     -0.528245
     84 O15        -5.5060   -2.9380    0.2970 o         1 MOL     -0.387351
     85 H33        -2.3690   -2.3800    1.1490 hn        1 MOL      0.253898
     86 H34        -1.4110   -4.7000   -0.2770 h1        1 MOL      0.099028
     87 H35        -2.4620   -5.5410    1.6280 hc        1 MOL      0.045805
     88 H36        -3.5930   -5.9390    0.3790 hc        1 MOL      0.045805
     89 H37        -3.9650   -3.5800    2.2730 hc        1 MOL      0.155956
     90 H38        -4.7170   -5.1950    2.4490 hc        1 MOL      0.155956
     91 H39        -6.1810   -5.8400    0.8320 hn        1 MOL      0.303667
     92 H40        -6.9290   -4.7180   -0.4040 hn        1 MOL      0.303667
     93 N9         -3.2820   -2.6900   -1.6940 n         1 MOL     -0.187874
     94 C30        -3.8080   -2.3050   -3.0500 c3        1 MOL     -0.063248
     95 C31        -5.1260   -1.5340   -3.0820 c         1 MOL      0.450126
     96 O16        -5.5420   -1.1520   -4.1390 o         1 MOL     -0.547593
     97 C32        -2.7140   -1.5890   -3.8920 c3        1 MOL      0.087946
     98 C33        -1.8770   -2.6850   -4.5570 c3        1 MOL     -0.253761
     99 C34        -1.7940   -0.6840   -3.0800 c3        1 MOL     -0.253761
    100 H41        -3.0830   -1.9080   -1.0830 hn        1 MOL      0.181083
    101 H42        -4.0680   -3.2310   -3.5570 h1        1 MOL      0.114823
    102 H43        -3.1870   -0.9550   -4.6540 hc        1 MOL      0.042131
    103 H44        -1.5120   -3.4180   -3.8390 hc        1 MOL      0.067851
    104 H45        -2.5410   -3.1780   -5.2630 hc        1 MOL      0.067851
    105 H46        -0.9910   -2.2830   -5.0340 hc        1 MOL      0.067851
    106 H47        -2.3440    0.1410   -2.6330 hc        1 MOL      0.067851
    107 H48        -1.3850   -1.1870   -2.2000 hc        1 MOL      0.067851
    108 H49        -0.9350   -0.3660   -3.6650 hc        1 MOL      0.067851
    109 N10        -5.7950   -1.2090   -1.9510 n         1 MOL     -0.163742
    110 C35        -7.0870   -0.6070   -1.9790 c3        1 MOL     -0.111471
    111 C36        -7.2420    0.6710   -1.2360 c         1 MOL      0.697408
    112 O17        -8.2720    1.2920   -1.4360 o         1 MOL     -0.561783
    113 C37        -8.1390   -1.5550   -1.4330 c3        1 MOL     -0.059040
    114 C38        -8.1730   -2.8700   -2.0990 c         1 MOL      0.566127
    115 N11        -8.1430   -2.9750   -3.4530 n         1 MOL     -0.741210
    116 O18        -8.1270   -3.8400   -1.3750 o         1 MOL     -0.526586
    117 H50        -5.3880   -1.5000   -1.0650 hn        1 MOL      0.210790
    118 H51        -7.3770   -0.3150   -2.9940 h1        1 MOL      0.094335
    119 H52        -9.1040   -1.0460   -1.4690 hc        1 MOL      0.026396
    120 H53        -7.8390   -1.8600   -0.4360 hc        1 MOL      0.026396
    121 H54        -8.2400   -2.2230   -4.1310 hn        1 MOL      0.351317
    122 H55        -8.2640   -3.9000   -3.8360 hn        1 MOL      0.351317
    123 N12        -6.2190    1.0720   -0.4360 n         1 MOL     -0.718042
    124 C39        -6.0470    2.3350    0.2610 c3        1 MOL      0.565573
    125 C40        -4.6330    2.9440    0.4120 c         1 MOL      0.308044
    126 O19        -3.6260    2.2340    0.2780 o         1 MOL     -0.402703
    127 C41        -6.8700    2.1140    1.5540 c3        1 MOL     -0.372317
    128 C42        -6.4470    0.8310    2.3080 ca        1 MOL      0.399610
    129 C43        -7.1280   -0.3920    2.1380 ca        1 MOL     -0.352672
    130 C44        -5.5550    1.0100    3.3380 ca        1 MOL     -0.352672
    131 C45        -6.8240   -1.4800    2.9230 ca        1 MOL     -0.077981
    132 C46        -5.3360    0.0110    4.2540 ca        1 MOL     -0.077981
    133 C47        -5.9970   -1.2530    4.0890 ca        1 MOL      0.076069
    134 O20        -5.6690   -2.2560    4.8870 oh        1 MOL     -0.391818
    135 H56        -5.4800    0.4130   -0.2350 hn        1 MOL      0.209631
    136 H57        -6.6440    3.0100   -0.3460 h1        1 MOL     -0.048628
    137 H58        -7.9360    2.0080    1.3280 hc        1 MOL      0.080065
    138 H59        -6.7700    2.9090    2.2950 hc        1 MOL      0.080065
    139 H60        -7.8800   -0.5910    1.3830 ha        1 MOL      0.150094
    140 H61        -5.1500    1.9830    3.5970 ha        1 MOL      0.150094
    141 H62        -7.2930   -2.4470    2.8280 ha        1 MOL      0.137189
    142 H63        -4.5740    0.1060    5.0050 ha        1 MOL      0.137189
    143 H64        -5.9720   -3.1080    4.5730 ho        1 MOL      0.304096
    144 N13        -4.5320    4.2370    0.7480 n         1 MOL     -0.517267
    145 C48        -3.2990    4.9980    1.0260 c3        1 MOL      0.164916
    146 C49        -2.2560    5.2180   -0.0750 c         1 MOL      0.616224
    147 O21        -1.7250    6.3360   -0.1340 o         1 MOL     -0.572794
    148 C50        -2.7630    4.4710    2.3020 c3        1 MOL     -0.063725
    149 C51        -3.4900    5.1280    3.5300 c3        1 MOL     -0.019069
    150 C52        -3.0200    4.4390    4.8410 c         1 MOL      0.495674
    151 O22        -2.1760    5.0040    5.5460 o         1 MOL     -0.641647
    152 O23        -3.4590    3.2920    5.1730 o         1 MOL     -0.641647
    153 H65        -5.4520    4.6670    0.7750 hn        1 MOL      0.283218
    154 H66        -3.6000    6.0340    1.1740 h1        1 MOL      0.020063
    155 H67        -1.7210    4.7530    2.3860 hc        1 MOL      0.076314
    156 H68        -2.9430    3.3970    2.2770 hc        1 MOL      0.076314
    157 H69        -4.5580    4.9680    3.3620 hc        1 MOL     -0.028577
    158 H70        -3.3080    6.1980    3.5640 hc        1 MOL     -0.028577
    159 N14        -1.9520    4.2170   -0.8950 n         1 MOL     -0.639519
    160 C53        -0.8760    4.2760   -1.8300 c3        1 MOL     -0.019984
    161 C54        -1.1000    5.1480   -3.0860 c         1 MOL      0.477424
    162 O24        -0.2870    5.2380   -3.9280 o         1 MOL     -0.509923
    163 C55        -0.5100    2.8910   -2.2950 c3        1 MOL      0.010601
    164 C56        -0.1070    1.7770   -1.3330 c3        1 MOL      0.587949
    165 C57         1.1500    2.1420   -0.5370 c         1 MOL      0.403317
    166 O25         1.1080    3.0050    0.3390 o         1 MOL     -0.658248
    167 O26         2.1350    1.3760   -0.5240 o         1 MOL     -0.658248
    168 H71        -2.4320    3.3400   -0.7670 hn        1 MOL      0.289542
    169 H72         0.0040    4.7830   -1.4280 h1        1 MOL      0.159198
    170 H73         0.3940    2.9340   -2.9030 hc        1 MOL     -0.025536
    171 H74        -1.2370    2.4990   -3.0100 hc        1 MOL     -0.025536
    172 H75         0.1690    0.9020   -1.9160 hc        1 MOL     -0.183332
    173 H76        -0.9450    1.6110   -0.6500 hc        1 MOL     -0.183332
    174 N15        -2.2820    5.8110   -3.1150 n         1 MOL     -0.231845
    175 C58        -2.7740    6.6730   -4.2260 c3        1 MOL     -0.228202
    176 H77        -3.8270    6.9050   -4.0660 h1        1 MOL      0.091849
    177 H78        -2.1990    7.5990   -4.2510 h1        1 MOL      0.091849
    178 H79        -2.6590    6.1460   -5.1740 h1        1 MOL      0.091849
    179 H80        -2.8390    5.8190   -2.2790 hn        1 MOL      0.220100
    180 Ca1         4.1980    1.9290    0.8740 Ca        1 MOL      1.816342
    181 O27         2.4040    1.5800    2.8340 oh        1 MOL     -0.891364
    182 H81         1.4500    1.5820    2.8680 ho        1 MOL      0.426416
    183 H82         2.6730    1.2350    3.6860 ho        1 MOL      0.426416
    184 O28         4.0540    4.3340    2.1080 oh        1 MOL     -0.891364
    185 H83         3.1790    4.6920    1.9640 ho        1 MOL      0.426416
    186 H84         4.2340    4.5150    3.0410 ho        1 MOL      0.426416
    187 O29         5.6140    0.8250    2.8840 oh        1 MOL     -0.891364
    188 H85         5.3930    0.5940    3.7920 ho        1 MOL      0.426416
    189 H86         6.3630    0.2700    2.6780 ho        1 MOL      0.426416
@<TRIPOS>BOND
     1    1    2 1   
     2    1    4 1   
     3    1    5 1   
     4    1    6 1   
     5    2    3 2   
     6    2    7 1   
     7    7    8 1   
     8    7   15 1   
     9    8    9 1   
    10    8   11 1   
    11    8   16 1   
    12    9   10 2   
    13    9   19 1   
    14   11   12 1   
    15   11   17 1   
    16   11   18 1   
    17   12   13 1   
    18   12   14 1   
    19   19   20 1   
    20   19   27 1   
    21   20   21 1   
    22   20   23 1   
    23   20   28 1   
    24   21   22 2   
    25   21   38 1   
    26   23   24 1   
    27   23   25 1   
    28   23   29 1   
    29   24   26 1   
    30   24   30 1   
    31   24   31 1   
    32   25   32 1   
    33   25   33 1   
    34   25   34 1   
    35   26   35 1   
    36   26   36 1   
    37   26   37 1   
    38   38   39 1   
    39   38   46 1   
    40   39   40 1   
    41   39   42 1   
    42   39   47 1   
    43   40   41 2   
    44   40   50 1   
    45   42   43 1   
    46   42   48 1   
    47   42   49 1   
    48   43   44 1   
    49   43   45 1   
    50   50   51 1   
    51   50   54 1   
    52   51   52 1   
    53   51   55 1   
    54   51   56 1   
    55   52   53 2   
    56   52   57 1   
    57   57   58 1   
    58   57   65 1   
    59   58   59 1   
    60   58   61 1   
    61   58   66 1   
    62   59   60 2   
    63   59   69 1   
    64   61   62 1   
    65   61   67 1   
    66   61   68 1   
    67   62   63 1   
    68   62   64 1   
    69   69   70 1   
    70   69   73 1   
    71   70   71 1   
    72   70   74 1   
    73   70   75 1   
    74   71   72 2   
    75   71   76 1   
    76   76   77 1   
    77   76   85 1   
    78   77   78 1   
    79   77   80 1   
    80   77   86 1   
    81   78   79 2   
    82   78   93 1   
    83   80   81 1   
    84   80   87 1   
    85   80   88 1   
    86   81   82 1   
    87   81   89 1   
    88   81   90 1   
    89   82   83 1   
    90   82   84 2   
    91   83   91 1   
    92   83   92 1   
    93   93   94 1   
    94   93  100 1   
    95   94   95 1   
    96   94   97 1   
    97   94  101 1   
    98   95   96 2   
    99   95  109 1   
   100   97   98 1   
   101   97   99 1   
   102   97  102 1   
   103   98  103 1   
   104   98  104 1   
   105   98  105 1   
   106   99  106 1   
   107   99  107 1   
   108   99  108 1   
   109  109  110 1   
   110  109  117 1   
   111  110  111 1   
   112  110  113 1   
   113  110  118 1   
   114  111  112 2   
   115  111  123 1   
   116  113  114 1   
   117  113  119 1   
   118  113  120 1   
   119  114  115 1   
   120  114  116 2   
   121  115  121 1   
   122  115  122 1   
   123  123  124 1   
   124  123  135 1   
   125  124  125 1   
   126  124  127 1   
   127  124  136 1   
   128  125  126 2   
   129  125  144 1   
   130  127  128 1   
   131  127  137 1   
   132  127  138 1   
   133  128  129 ar  
   134  128  130 ar  
   135  129  131 ar  
   136  129  139 1   
   137  130  132 ar  
   138  130  140 1   
   139  131  133 ar  
   140  131  141 1   
   141  132  133 ar  
   142  132  142 1   
   143  133  134 1   
   144  134  143 1   
   145  144  145 1   
   146  144  153 1   
   147  145  146 1   
   148  145  148 1   
   149  145  154 1   
   150  146  147 2   
   151  146  159 1   
   152  148  149 1   
   153  148  155 1   
   154  148  156 1   
   155  149  150 1   
   156  149  157 1   
   157  149  158 1   
   158  150  151 1   
   159  150  152 1   
   160  159  160 1   
   161  159  168 1   
   162  160  161 1   
   163  160  163 1   
   164  160  169 1   
   165  161  162 2   
   166  161  174 1   
   167  163  164 1   
   168  163  170 1   
   169  163  171 1   
   170  164  165 1   
   171  164  172 1   
   172  164  173 1   
   173  165  166 1   
   174  165  167 1   
   175  174  175 1   
   176  174  179 1   
   177  175  176 1   
   178  175  177 1   
   179  175  178 1   
   180  181  182 1   
   181  181  183 1   
   182  184  185 1   
   183  184  186 1   
   184  187  188 1   
   185  187  189 1   
@<TRIPOS>SUBSTRUCTURE
     1 MOL         1 TEMP              0 ****  ****    0 ROOT
