@<TRIPOS>MOLECULE
MOL
  198   191     1     0     0
SMALL
resp


@<TRIPOS>ATOM
      1 C1          4.6270   -4.8960    1.1510 c3        1 MOL     -0.370409
      2 C2          3.6800   -3.7960    0.5850 c         1 MOL      0.641951
      3 O1          4.2460   -2.9000    0.0190 o         1 MOL     -0.587874
      4 H1          5.3660   -5.1620    0.3950 hc        1 MOL      0.101457
      5 H2          5.1340   -4.5180    2.0380 hc        1 MOL      0.101457
      6 H3          4.0430   -5.7780    1.4140 hc        1 MOL      0.101457
      7 N1          2.3460   -3.6710    0.7620 n         1 MOL     -0.287901
      8 C3          1.4810   -4.3950    1.7770 c3        1 MOL      0.086329
      9 C4          0.5220   -5.4070    1.1280 c         1 MOL      0.202688
     10 O2          0.1630   -6.5050    1.7220 o         1 MOL     -0.511792
     11 C5          0.6940   -3.4370    2.6100 c3        1 MOL      0.041612
     12 C6          1.5820   -2.5760    3.5160 c         1 MOL      0.612370
     13 O3          1.8340   -3.0410    4.6930 o         1 MOL     -0.749325
     14 O4          2.0530   -1.4750    3.1400 o         1 MOL     -0.749325
     15 H4          1.9900   -2.7890    0.4530 hn        1 MOL      0.198139
     16 H5          2.1500   -4.9860    2.4080 h1        1 MOL      0.102286
     17 H6         -0.1270   -3.9600    3.1180 hc        1 MOL      0.024855
     18 H7          0.0710   -2.7910    1.9790 hc        1 MOL      0.024855
     19 N2          0.2200   -5.2120   -0.1940 n         1 MOL      0.049089
     20 C7         -0.3860   -6.0760   -1.1450 c3        1 MOL     -0.272176
     21 C8         -1.9360   -6.1710   -1.0220 c         1 MOL      0.446469
     22 O5         -2.5060   -7.0850   -1.6000 o         1 MOL     -0.536794
     23 C9         -0.0130   -5.8300   -2.5900 c3        1 MOL      0.107375
     24 C10        -0.2150   -4.3970   -3.0780 c3        1 MOL      0.158376
     25 C11         1.3800   -6.2790   -2.8180 c3        1 MOL     -0.121862
     26 C12        -0.5620   -4.2610   -4.5590 c3        1 MOL     -0.247359
     27 H8          0.5520   -4.3380   -0.5540 hn        1 MOL     -0.037964
     28 H9         -0.1390   -7.0800   -0.7880 h1        1 MOL      0.134709
     29 H10        -0.6310   -6.5410   -3.1320 hc        1 MOL      0.042139
     30 H11         0.6800   -3.8010   -2.9460 hc        1 MOL      0.029526
     31 H12        -1.0420   -3.9810   -2.5030 hc        1 MOL      0.029526
     32 H13         2.1820   -5.6420   -2.4430 hc        1 MOL      0.009884
     33 H14         1.5660   -7.2700   -2.4090 hc        1 MOL      0.009884
     34 H15         1.5100   -6.3700   -3.8940 hc        1 MOL      0.009884
     35 H16        -0.2550   -3.2530   -4.8600 hc        1 MOL      0.038912
     36 H17        -0.0840   -5.0200   -5.1730 hc        1 MOL      0.038912
     37 H18        -1.6230   -4.4200   -4.7240 hc        1 MOL      0.038912
     38 N3         -2.5510   -5.1710   -0.3690 n         1 MOL     -0.082487
     39 C13        -3.9820   -5.1530   -0.1480 c3        1 MOL     -0.194164
     40 C14        -4.3730   -4.4480    1.1790 c         1 MOL      0.529039
     41 O6         -3.4770   -3.9440    1.8110 o         1 MOL     -0.510262
     42 C15        -4.5540   -4.4140   -1.3050 c3        1 MOL     -0.281331
     43 C16        -6.0230   -4.8010   -1.5260 c         1 MOL      0.687243
     44 O7         -6.9190   -4.1290   -0.9850 o         1 MOL     -0.679927
     45 O8         -6.3280   -5.8400   -2.1550 o         1 MOL     -0.679927
     46 H19        -2.0370   -4.4240    0.0690 hn        1 MOL      0.140476
     47 H20        -4.3580   -6.1800   -0.1290 h1        1 MOL      0.132701
     48 H21        -3.9470   -4.5500   -2.2090 hc        1 MOL      0.089176
     49 H22        -4.5860   -3.3380   -1.1680 hc        1 MOL      0.089176
     50 N4         -5.6150   -4.2640    1.5180 n         1 MOL     -0.449575
     51 C17        -6.0170   -3.2980    2.5740 c3        1 MOL     -0.019451
     52 C18        -6.4190   -1.8590    2.1610 c         1 MOL      0.457426
     53 O9         -6.3980   -0.9180    2.9010 o         1 MOL     -0.585112
     54 H23        -6.3370   -4.6060    0.8960 hn        1 MOL      0.327409
     55 H24        -5.2380   -3.1880    3.3270 h1        1 MOL      0.054351
     56 H25        -6.9100   -3.7270    3.0430 h1        1 MOL      0.054351
     57 N5         -6.7540   -1.7250    0.9050 n         1 MOL     -0.063275
     58 C19        -7.0410   -0.4300    0.1920 c3        1 MOL     -0.062565
     59 C20        -5.9070    0.2830   -0.5450 c         1 MOL      0.570141
     60 O10        -5.0680   -0.4230   -1.1480 o         1 MOL     -0.615965
     61 C21        -8.2360   -0.6360   -0.7550 c3        1 MOL     -0.218531
     62 C22        -9.4980   -1.0990   -0.1120 c         1 MOL      0.714968
     63 O11       -10.1180   -0.2670    0.5590 o         1 MOL     -0.726298
     64 O12        -9.8770   -2.2660   -0.2630 o         1 MOL     -0.726298
     65 H26        -6.6550   -2.6050    0.4130 hn        1 MOL      0.202446
     66 H27        -7.3490    0.2980    0.9420 h1        1 MOL      0.041517
     67 H28        -7.9040   -1.2920   -1.5590 hc        1 MOL      0.054798
     68 H29        -8.4510    0.3160   -1.2470 hc        1 MOL      0.054798
     69 N6         -5.8220    1.5930   -0.7590 n         1 MOL     -0.425055
     70 C23        -6.6990    2.5330   -0.1290 c3        1 MOL      0.144838
     71 C24        -6.6650    3.8760   -0.7760 c         1 MOL      0.487917
     72 O13        -7.2950    4.0050   -1.8110 o         1 MOL     -0.541866
     73 H30        -5.1240    1.9230   -1.4200 hn        1 MOL      0.307305
     74 H31        -6.5230    2.5440    0.9490 h1        1 MOL      0.033245
     75 H32        -7.7380    2.2060   -0.1910 h1        1 MOL      0.033245
     76 N7         -5.9880    4.8870   -0.2420 n         1 MOL     -0.408228
     77 C25        -5.0920    4.9480    0.9010 c3        1 MOL     -0.035983
     78 C26        -4.1090    3.8100    1.1100 c         1 MOL      0.229898
     79 O14        -4.1890    2.9540    2.0330 o         1 MOL     -0.471075
     80 C27        -5.7620    5.4410    2.1470 c3        1 MOL      0.171690
     81 C28        -6.7470    6.5980    1.9990 c3        1 MOL     -0.438589
     82 C29        -6.1340    7.9210    1.5490 c         1 MOL      0.791811
     83 N8         -6.8750    8.9580    1.2630 n         1 MOL     -0.829296
     84 O15        -4.9140    7.9940    1.5220 o         1 MOL     -0.590155
     85 H33        -6.1620    5.8110   -0.6060 hn        1 MOL      0.271253
     86 H34        -4.4990    5.7700    0.4960 h1        1 MOL      0.081789
     87 H35        -5.0580    5.7210    2.9300 hc        1 MOL      0.029374
     88 H36        -6.3230    4.5890    2.5430 hc        1 MOL      0.029374
     89 H37        -7.1920    6.7070    2.9800 hc        1 MOL      0.100902
     90 H38        -7.3730    6.2380    1.1800 hc        1 MOL      0.100902
     91 H39        -7.8670    8.8570    1.4210 hn        1 MOL      0.365977
     92 H40        -6.4490    9.8520    1.0240 hn        1 MOL      0.365977
     93 N9         -3.2160    3.5840    0.1530 n         1 MOL     -0.163268
     94 C30        -2.1960    2.5260    0.1810 c3        1 MOL      0.024170
     95 C31        -1.9310    2.1060   -1.2550 c         1 MOL      0.340767
     96 O16        -2.2920    2.7350   -2.1950 o         1 MOL     -0.525603
     97 C32        -0.8720    3.0500    0.8660 c3        1 MOL      0.205258
     98 C33        -0.9900    3.1980    2.3350 c3        1 MOL     -0.400114
     99 C34        -0.3270    4.2970    0.1750 c3        1 MOL     -0.400114
    100 H41        -3.1570    4.2810   -0.5790 hn        1 MOL      0.199136
    101 H42        -2.5660    1.6330    0.6930 h1        1 MOL      0.086478
    102 H43        -0.0910    2.2850    0.8470 hc        1 MOL      0.060144
    103 H44        -1.4310    2.3100    2.7840 hc        1 MOL      0.107296
    104 H45         0.0490    3.2590    2.6630 hc        1 MOL      0.107296
    105 H46        -1.6210    4.0420    2.6260 hc        1 MOL      0.107296
    106 H47        -0.6490    5.1960    0.7120 hc        1 MOL      0.107296
    107 H48         0.7630    4.2870    0.1750 hc        1 MOL      0.107296
    108 H49        -0.5800    4.3180   -0.8840 hc        1 MOL      0.107296
    109 N10        -1.1630    1.0180   -1.4020 n         1 MOL     -0.188698
    110 C35        -1.1050    0.2000   -2.6260 c3        1 MOL      0.057410
    111 C36         0.3200   -0.0360   -3.2540 c         1 MOL      0.398848
    112 O17         0.5130   -0.8730   -4.1680 o         1 MOL     -0.494401
    113 C37        -1.9100   -1.1530   -2.4490 c3        1 MOL     -0.310228
    114 C38        -1.6760   -1.8000   -1.1050 c         1 MOL      0.497197
    115 N11        -2.6950   -1.8010   -0.2850 n         1 MOL     -0.573649
    116 O18        -0.6090   -2.2910   -0.8550 o         1 MOL     -0.487809
    117 H50        -0.8220    0.6630   -0.5250 hn        1 MOL      0.184330
    118 H51        -1.6780    0.6530   -3.4480 h1        1 MOL      0.124674
    119 H52        -1.5550   -1.8130   -3.2460 hc        1 MOL      0.126660
    120 H53        -2.9600   -0.9090   -2.6500 hc        1 MOL      0.126660
    121 H54        -3.6000   -1.4680   -0.5880 hn        1 MOL      0.299328
    122 H55        -2.5710   -2.2430    0.6180 hn        1 MOL      0.299328
    123 N12         1.3050    0.7000   -2.7310 n         1 MOL     -0.336583
    124 C39         2.6600    0.8870   -3.2350 c3        1 MOL      0.105255
    125 C40         3.5850    1.2080   -2.0530 c         1 MOL      0.564850
    126 O19         3.1240    1.3370   -0.9080 o         1 MOL     -0.605781
    127 C41         2.7350    2.0700   -4.2770 c3        1 MOL      0.040174
    128 C42         2.3010    3.4350   -3.8420 ca        1 MOL      0.045947
    129 C43         3.2920    4.4160   -3.5440 ca        1 MOL     -0.164817
    130 C44         0.8990    3.8220   -3.6720 ca        1 MOL     -0.164817
    131 C45         2.9420    5.6220   -2.8800 ca        1 MOL     -0.240945
    132 C46         0.5680    5.1130   -3.2260 ca        1 MOL     -0.240945
    133 C47         1.5870    6.0090   -2.9020 ca        1 MOL      0.284614
    134 O20         1.1990    7.2470   -2.4330 oh        1 MOL     -0.477719
    135 H56         1.0240    1.2970   -1.9740 hn        1 MOL      0.169898
    136 H57         3.1500    0.0160   -3.6780 h1        1 MOL      0.045700
    137 H58         2.1250    1.7670   -5.1390 hc        1 MOL     -0.005956
    138 H59         3.7150    2.1520   -4.7360 hc        1 MOL     -0.005956
    139 H60         4.3110    4.1940   -3.8470 ha        1 MOL      0.119620
    140 H61         0.0880    3.1790   -3.9500 ha        1 MOL      0.119620
    141 H62         3.6850    6.3100   -2.5070 ha        1 MOL      0.179946
    142 H63        -0.4800    5.3600   -3.2180 ha        1 MOL      0.179946
    143 H64         0.2490    7.2270   -2.2880 ho        1 MOL      0.333439
    144 N13         4.8520    1.3450   -2.2350 n         1 MOL     -0.238400
    145 C48         5.8670    1.7680   -1.2780 c3        1 MOL     -0.130162
    146 C49         6.9980    0.7280   -1.2740 c         1 MOL      0.667040
    147 O21         7.8910    0.7610   -2.1310 o         1 MOL     -0.551593
    148 C50         6.3150    3.1050   -1.6640 c3        1 MOL     -0.010545
    149 C51         7.0770    3.8030   -0.5670 c3        1 MOL     -0.379719
    150 C52         7.4570    5.2820   -0.8070 c         1 MOL      0.802458
    151 O22         8.3780    5.4720   -1.6520 o         1 MOL     -0.752033
    152 O23         6.8920    6.2030   -0.3280 o         1 MOL     -0.752033
    153 H65         5.1670    1.1960   -3.1850 hn        1 MOL      0.192302
    154 H66         5.4520    1.7630   -0.2720 h1        1 MOL      0.130149
    155 H67         5.4100    3.6830   -1.8200 hc        1 MOL      0.054113
    156 H68         6.9250    3.1160   -2.5650 hc        1 MOL      0.054113
    157 H69         8.0180    3.2880   -0.3620 hc        1 MOL      0.065872
    158 H70         6.4040    3.8210    0.2880 hc        1 MOL      0.065872
    159 N14         6.9720   -0.1490   -0.2550 n         1 MOL     -0.327047
    160 C53         7.7640   -1.3950   -0.2070 c3        1 MOL     -0.126573
    161 C54         7.4450   -2.4210   -1.3180 c         1 MOL      0.387968
    162 O24         8.1630   -3.3700   -1.4650 o         1 MOL     -0.531143
    163 C55         7.6390   -2.0850    1.1160 c3        1 MOL      0.118971
    164 C56         7.8610   -1.1940    2.3150 c3        1 MOL     -0.342959
    165 C57         6.6270   -0.5980    2.8850 c         1 MOL      0.837138
    166 O25         6.4280    0.6210    2.9550 o         1 MOL     -0.760298
    167 O26         5.6880   -1.2980    3.3110 o         1 MOL     -0.760298
    168 H71         6.1410   -0.1120    0.3210 hn        1 MOL      0.103315
    169 H72         8.7890   -1.0830   -0.3870 h1        1 MOL      0.118607
    170 H73         8.3070   -2.9510    1.1560 hc        1 MOL      0.042374
    171 H74         6.5980   -2.4140    1.1850 hc        1 MOL      0.042374
    172 H75         8.4480   -0.3340    1.9810 hc        1 MOL      0.066158
    173 H76         8.3850   -1.7680    3.0870 hc        1 MOL      0.066158
    174 N15         6.3900   -2.1010   -2.0890 n         1 MOL     -0.042756
    175 C58         5.9150   -2.6450   -3.3830 c3        1 MOL     -0.194635
    176 H77         6.2890   -3.6620   -3.5080 h1        1 MOL      0.082938
    177 H78         4.8260   -2.6560   -3.3960 h1        1 MOL      0.082938
    178 H79         6.2830   -2.0210   -4.1970 h1        1 MOL      0.082938
    179 H80         5.9660   -1.2140   -1.8200 hn        1 MOL      0.079670
    180 Ca1         3.8360    0.4500    3.6120 Ca        1 MOL      1.813622
    181 O27         3.9170   -0.3750    0.9780 oh        1 MOL     -0.823358
    182 H81         3.9620   -1.2840    0.7000 ho        1 MOL      0.398926
    183 H82         3.3940    0.0630    0.3100 ho        1 MOL      0.398926
    184 O28         5.4310    0.5880    5.8170 oh        1 MOL     -0.823358
    185 H83         5.5760   -0.2460    6.2640 ho        1 MOL      0.398926
    186 H84         5.2020    1.1950    6.5250 ho        1 MOL      0.398926
    187 O29         3.6130    2.7060    5.2530 oh        1 MOL     -0.823358
    188 H85         4.1620    3.2600    5.7990 ho        1 MOL      0.398926
    189 H86         2.7420    3.0930    5.2990 ho        1 MOL      0.398926
    190 O30         1.1380    1.2870    3.9250 oh        1 MOL     -0.823358
    191 H87         0.7620    1.4250    4.7860 ho        1 MOL      0.398926
    192 H88         0.4940    0.7460    3.4680 ho        1 MOL      0.398926
    193 O31         2.8150   -0.8090    5.7710 oh        1 MOL     -0.823358
    194 H89         2.4340   -1.5660    5.3210 ho        1 MOL      0.398926
    195 H90         2.2860   -0.7300    6.5670 ho        1 MOL      0.398926
    196 O32         3.7540    2.6970    2.1290 oh        1 MOL     -0.823358
    197 H91         3.8260    2.8470    1.1880 ho        1 MOL      0.398926
    198 H92         3.8550    3.5740    2.5080 ho        1 MOL      0.398926
@<TRIPOS>BOND
     1    1    2 1   
     2    1    4 1   
     3    1    5 1   
     4    1    6 1   
     5    2    3 2   
     6    2    7 1   
     7    7    8 1   
     8    7   15 1   
     9    8    9 1   
    10    8   11 1   
    11    8   16 1   
    12    9   10 2   
    13    9   19 1   
    14   11   12 1   
    15   11   17 1   
    16   11   18 1   
    17   12   13 1   
    18   12   14 1   
    19   19   20 1   
    20   19   27 1   
    21   20   21 1   
    22   20   23 1   
    23   20   28 1   
    24   21   22 2   
    25   21   38 1   
    26   23   24 1   
    27   23   25 1   
    28   23   29 1   
    29   24   26 1   
    30   24   30 1   
    31   24   31 1   
    32   25   32 1   
    33   25   33 1   
    34   25   34 1   
    35   26   35 1   
    36   26   36 1   
    37   26   37 1   
    38   38   39 1   
    39   38   46 1   
    40   39   40 1   
    41   39   42 1   
    42   39   47 1   
    43   40   41 2   
    44   40   50 1   
    45   42   43 1   
    46   42   48 1   
    47   42   49 1   
    48   43   44 1   
    49   43   45 1   
    50   50   51 1   
    51   50   54 1   
    52   51   52 1   
    53   51   55 1   
    54   51   56 1   
    55   52   53 2   
    56   52   57 1   
    57   57   58 1   
    58   57   65 1   
    59   58   59 1   
    60   58   61 1   
    61   58   66 1   
    62   59   60 2   
    63   59   69 1   
    64   61   62 1   
    65   61   67 1   
    66   61   68 1   
    67   62   63 1   
    68   62   64 1   
    69   69   70 1   
    70   69   73 1   
    71   70   71 1   
    72   70   74 1   
    73   70   75 1   
    74   71   72 2   
    75   71   76 1   
    76   76   77 1   
    77   76   85 1   
    78   77   78 1   
    79   77   80 1   
    80   77   86 1   
    81   78   79 2   
    82   78   93 1   
    83   80   81 1   
    84   80   87 1   
    85   80   88 1   
    86   81   82 1   
    87   81   89 1   
    88   81   90 1   
    89   82   83 1   
    90   82   84 2   
    91   83   91 1   
    92   83   92 1   
    93   93   94 1   
    94   93  100 1   
    95   94   95 1   
    96   94   97 1   
    97   94  101 1   
    98   95   96 2   
    99   95  109 1   
   100   97   98 1   
   101   97   99 1   
   102   97  102 1   
   103   98  103 1   
   104   98  104 1   
   105   98  105 1   
   106   99  106 1   
   107   99  107 1   
   108   99  108 1   
   109  109  110 1   
   110  109  117 1   
   111  110  111 1   
   112  110  113 1   
   113  110  118 1   
   114  111  112 2   
   115  111  123 1   
   116  113  114 1   
   117  113  119 1   
   118  113  120 1   
   119  114  115 1   
   120  114  116 2   
   121  115  121 1   
   122  115  122 1   
   123  123  124 1   
   124  123  135 1   
   125  124  125 1   
   126  124  127 1   
   127  124  136 1   
   128  125  126 2   
   129  125  144 1   
   130  127  128 1   
   131  127  137 1   
   132  127  138 1   
   133  128  129 ar  
   134  128  130 ar  
   135  129  131 ar  
   136  129  139 1   
   137  130  132 ar  
   138  130  140 1   
   139  131  133 ar  
   140  131  141 1   
   141  132  133 ar  
   142  132  142 1   
   143  133  134 1   
   144  134  143 1   
   145  144  145 1   
   146  144  153 1   
   147  145  146 1   
   148  145  148 1   
   149  145  154 1   
   150  146  147 2   
   151  146  159 1   
   152  148  149 1   
   153  148  155 1   
   154  148  156 1   
   155  149  150 1   
   156  149  157 1   
   157  149  158 1   
   158  150  151 1   
   159  150  152 1   
   160  159  160 1   
   161  159  168 1   
   162  160  161 1   
   163  160  163 1   
   164  160  169 1   
   165  161  162 2   
   166  161  174 1   
   167  163  164 1   
   168  163  170 1   
   169  163  171 1   
   170  164  165 1   
   171  164  172 1   
   172  164  173 1   
   173  165  166 1   
   174  165  167 1   
   175  174  175 1   
   176  174  179 1   
   177  175  176 1   
   178  175  177 1   
   179  175  178 1   
   180  181  182 1   
   181  181  183 1   
   182  184  185 1   
   183  184  186 1   
   184  187  188 1   
   185  187  189 1   
   186  190  191 1   
   187  190  192 1   
   188  193  194 1   
   189  193  195 1   
   190  196  197 1   
   191  196  198 1   
@<TRIPOS>SUBSTRUCTURE
     1 MOL         1 TEMP              0 ****  ****    0 ROOT
