@<TRIPOS>MOLECULE
MOL
  182   178     1     0     0
SMALL
resp


@<TRIPOS>ATOM
      1 C1         -0.0220   -3.9900    6.1360 c3        1 MOL     -0.377362
      2 C2          0.2320   -3.8250    4.6060 c         1 MOL      0.753153
      3 O1         -0.7480   -3.6900    3.8850 o         1 MOL     -0.615809
      4 H1          0.4340   -3.1580    6.6720 hc        1 MOL      0.106946
      5 H2         -1.0960   -4.0010    6.3280 hc        1 MOL      0.106946
      6 H3          0.4180   -4.9260    6.4790 hc        1 MOL      0.106946
      7 N1          1.4650   -3.7900    4.0580 n         1 MOL     -0.586919
      8 C3          1.7940   -3.4510    2.6900 c3        1 MOL      0.084534
      9 C4          2.1670   -4.6630    1.7960 c         1 MOL      0.486651
     10 O2          2.9230   -5.5280    2.2360 o         1 MOL     -0.556035
     11 C5          2.9560   -2.3930    2.6510 c3        1 MOL     -0.058059
     12 C6          3.0870   -1.5130    1.4090 c         1 MOL      0.259731
     13 O3          3.7940   -0.4980    1.3860 o         1 MOL     -0.536990
     14 O4          2.5170   -1.8960    0.3810 o         1 MOL     -0.536990
     15 H4          2.2350   -3.8720    4.7070 hn        1 MOL      0.297066
     16 H5          0.8410   -3.0820    2.3050 h1        1 MOL      0.075456
     17 H6          3.8840   -2.9510    2.7620 hc        1 MOL      0.071546
     18 H7          2.8840   -1.7720    3.5590 hc        1 MOL      0.071546
     19 N2          1.8190   -4.7240    0.5350 n         1 MOL     -0.154740
     20 C7          2.1810   -5.8220   -0.3860 c3        1 MOL      0.092946
     21 C8          3.6720   -5.7080   -0.8110 c         1 MOL      0.476413
     22 O5          4.2780   -6.6990   -1.0900 o         1 MOL     -0.547672
     23 C9          1.0890   -5.8370   -1.5810 c3        1 MOL     -0.202725
     24 C10         1.1390   -4.4610   -2.4120 c3        1 MOL      0.114776
     25 C11        -0.1420   -4.1030   -3.1990 c3        1 MOL     -0.080904
     26 C12        -1.3660   -3.7820   -2.4920 c3        1 MOL      0.061333
     27 N3         -2.6620   -4.2690   -3.0760 n4        1 MOL     -0.200880
     28 H8          1.1730   -4.0400    0.1780 hn        1 MOL     -0.025111
     29 H9          2.1300   -6.7690    0.1520 h1        1 MOL      0.071216
     30 H10         0.1430   -5.8560   -1.0500 hc        1 MOL      0.067450
     31 H11         1.2470   -6.7210   -2.2000 hc        1 MOL      0.067450
     32 H12         1.9720   -4.5020   -3.1120 hc        1 MOL      0.017250
     33 H13         1.3320   -3.6320   -1.7390 hc        1 MOL      0.017250
     34 H14        -0.3750   -4.8810   -3.9220 hc        1 MOL      0.015751
     35 H15         0.1160   -3.2870   -3.8690 hc        1 MOL      0.015751
     36 H16        -1.2810   -2.6950   -2.4390 hx        1 MOL      0.050720
     37 H17        -1.3240   -4.1110   -1.4500 hx        1 MOL      0.050720
     38 H18        -2.7460   -5.2030   -2.7130 hn        1 MOL      0.245672
     39 H19        -3.5290   -3.8160   -2.8130 hn        1 MOL      0.245672
     40 H20        -2.6960   -4.3160   -4.0880 hn        1 MOL      0.245672
     41 N4          4.2410   -4.5330   -0.9570 n         1 MOL     -0.164695
     42 C13         5.6630   -4.1420   -1.3420 c3        1 MOL     -0.028421
     43 C14         6.5720   -3.5360   -0.3370 c         1 MOL      0.425773
     44 O6          7.7720   -3.3790   -0.4910 o         1 MOL     -0.513923
     45 C15         5.6110   -3.4220   -2.6660 c3        1 MOL     -0.361576
     46 C16         4.8510   -2.1250   -2.6950 c         1 MOL      0.815120
     47 O7          4.7310   -1.3690   -1.7070 o         1 MOL     -0.741438
     48 O8          4.4000   -1.6770   -3.7590 o         1 MOL     -0.741438
     49 H21         3.6910   -3.6990   -0.7920 hn        1 MOL      0.104446
     50 H22         6.0790   -5.1380   -1.4720 h1        1 MOL      0.129407
     51 H23         5.2580   -4.0890   -3.4510 hc        1 MOL      0.121037
     52 H24         6.6300   -3.1310   -2.9110 hc        1 MOL      0.121037
     53 N5          5.8900   -2.9700    0.7300 n         1 MOL     -0.069175
     54 C17         6.5060   -2.1990    1.7800 c3        1 MOL     -0.350756
     55 C18         6.8780   -0.7930    1.4300 c         1 MOL      0.641492
     56 O9          7.3650   -0.0580    2.2940 o         1 MOL     -0.560316
     57 H25         4.8890   -3.1080    0.7290 hn        1 MOL      0.031154
     58 H26         7.4140   -2.7910    1.9560 h1        1 MOL      0.149441
     59 H27         5.7910   -2.0490    2.5890 h1        1 MOL      0.149441
     60 N6          6.8160   -0.4830    0.1130 n         1 MOL     -0.427918
     61 C19         7.2460    0.7460   -0.4880 c3        1 MOL      0.071744
     62 C20         6.2190    1.8840   -0.3930 c         1 MOL      0.580947
     63 O10         5.0010    1.7350   -0.5660 o         1 MOL     -0.609409
     64 C21         7.6640    0.4110   -1.9080 c3        1 MOL     -0.171243
     65 C22         8.5330    1.4940   -2.5310 c         1 MOL      0.577615
     66 N7          9.8480    1.3560   -2.7820 n         1 MOL     -0.735121
     67 O11         8.0240    2.5520   -2.8750 o         1 MOL     -0.540902
     68 H28         6.3140   -1.1180   -0.4980 hn        1 MOL      0.384482
     69 H29         8.1320    1.2090   -0.0460 h1        1 MOL      0.030247
     70 H30         6.7670    0.2250   -2.4950 hc        1 MOL      0.057670
     71 H31         8.1990   -0.5470   -1.8800 hc        1 MOL      0.057670
     72 H32        10.1920    0.4090   -2.7970 hn        1 MOL      0.351511
     73 H33        10.1920    2.0490   -3.4320 hn        1 MOL      0.351511
     74 N8          6.6840    3.0800   -0.2740 n         1 MOL     -0.413761
     75 C23         5.8280    4.2680   -0.5600 c3        1 MOL     -0.101118
     76 C24         4.7600    4.4470    0.4860 c         1 MOL      0.518507
     77 O12         5.1380    4.4600    1.6330 o         1 MOL     -0.486027
     78 H34         7.6630    3.2280   -0.1360 hn        1 MOL      0.336715
     79 H35         5.3750    4.3090   -1.5460 h1        1 MOL      0.094739
     80 H36         6.4460    5.1640   -0.6200 h1        1 MOL      0.094739
     81 N9          3.4620    4.6720    0.1420 n         1 MOL     -0.481096
     82 C25         2.2270    4.6420    0.9510 c3        1 MOL      0.196357
     83 C26         1.8660    3.1690    1.1970 c         1 MOL      0.593175
     84 O13         2.5080    2.2750    0.6300 o         1 MOL     -0.442018
     85 C27         1.0580    5.3630    0.2530 c3        1 MOL     -0.256582
     86 C28         1.2770    6.8660    0.1520 ca        1 MOL      0.161421
     87 C29         0.4070    7.8100    0.8310 ca        1 MOL     -0.230807
     88 C30         2.2120    7.3310   -0.8250 ca        1 MOL     -0.230807
     89 C31         0.5760    9.1870    0.6550 ca        1 MOL     -0.190674
     90 C32         2.2230    8.6960   -1.0750 ca        1 MOL     -0.190674
     91 C33         1.4550    9.6160   -0.3670 ca        1 MOL      0.296451
     92 O14         1.7300   10.9610   -0.5810 oh        1 MOL     -0.512375
     93 H37         3.3800    4.6810   -0.8670 hn        1 MOL      0.299355
     94 H38         2.4410    5.1820    1.8760 h1        1 MOL      0.047215
     95 H39         0.1330    5.3030    0.8140 hc        1 MOL      0.061195
     96 H40         0.9320    4.8910   -0.7310 hc        1 MOL      0.061195
     97 H41        -0.2820    7.3340    1.5160 ha        1 MOL      0.143569
     98 H42         2.8200    6.6460   -1.3870 ha        1 MOL      0.143569
     99 H43        -0.0060    9.8590    1.2750 ha        1 MOL      0.144662
    100 H44         2.8280    9.1140   -1.8670 ha        1 MOL      0.144662
    101 H45         1.3460   11.5850    0.0360 ho        1 MOL      0.391589
    102 N10         0.8780    2.9120    2.0780 n         1 MOL     -0.699303
    103 C34         0.2320    1.6240    2.3980 c3        1 MOL      0.151015
    104 C35        -0.2360    0.6630    1.2450 c         1 MOL      0.413991
    105 O15         0.6780    0.2520    0.5120 o         1 MOL     -0.492910
    106 C36         1.0370    0.9460    3.5330 c3        1 MOL      0.331633
    107 C37         0.1870   -0.1480    4.2450 c3        1 MOL     -0.059005
    108 C38         1.6360    1.7990    4.6630 c3        1 MOL     -0.385878
    109 C39        -0.9630    0.3510    5.0670 c3        1 MOL     -0.280910
    110 H46         0.4430    3.7170    2.4940 hn        1 MOL      0.344073
    111 H47        -0.7660    1.8270    2.7780 h1        1 MOL      0.008135
    112 H48         1.9010    0.5800    2.9720 hc        1 MOL     -0.016240
    113 H49         0.9150   -0.7900    4.7520 hc        1 MOL      0.042375
    114 H50        -0.2080   -0.8100    3.4830 hc        1 MOL      0.042375
    115 H51         2.2840    2.5370    4.2030 hc        1 MOL      0.097039
    116 H52         0.8560    2.3180    5.2180 hc        1 MOL      0.097039
    117 H53         2.2630    1.2220    5.3400 hc        1 MOL      0.097039
    118 H54        -1.4360    1.2680    4.7150 hc        1 MOL      0.070659
    119 H55        -1.7970   -0.3530    5.1710 hc        1 MOL      0.070659
    120 H56        -0.5790    0.5480    6.0670 hc        1 MOL      0.070659
    121 N11        -1.4850    0.1500    1.2190 n         1 MOL     -0.508963
    122 C40        -1.9260   -0.8500    0.1680 c3        1 MOL      0.213792
    123 C41        -3.4690   -0.8600   -0.2540 c         1 MOL      0.419473
    124 O16        -3.8470   -1.6330   -1.1330 o         1 MOL     -0.487774
    125 C42        -1.5950   -2.2770    0.6720 c3        1 MOL      0.055097
    126 O17        -0.3550   -2.6830    0.0210 oh        1 MOL     -0.362435
    127 H57        -2.1430    0.5830    1.8520 hn        1 MOL      0.297492
    128 H58        -1.3450   -0.6880   -0.7460 h1        1 MOL      0.014276
    129 H59        -2.3890   -2.9480    0.3460 h1        1 MOL      0.064107
    130 H60        -1.5050   -2.3150    1.7620 h1        1 MOL      0.064107
    131 H61         0.2730   -1.9860    0.2500 ho        1 MOL      0.313762
    132 N12        -4.3410   -0.0840    0.4410 n         1 MOL     -0.530762
    133 C43        -5.7830   -0.0490    0.1340 c3        1 MOL      0.163182
    134 C44        -5.9650    0.4730   -1.2570 c         1 MOL      0.552037
    135 O18        -5.0880    1.2280   -1.8330 o         1 MOL     -0.553178
    136 C45        -6.5910    0.5530    1.3320 c3        1 MOL     -0.208044
    137 H62        -4.0600    0.6200    1.1120 hn        1 MOL      0.312575
    138 H63        -6.2470   -1.0320    0.1540 h1        1 MOL      0.081243
    139 H64        -7.6720    0.4130    1.3570 hc        1 MOL      0.081339
    140 H65        -6.2000    0.2180    2.2980 hc        1 MOL      0.081339
    141 H66        -6.4090    1.6270    1.3450 hc        1 MOL      0.081339
    142 N13        -7.1640    0.3520   -1.9060 n         1 MOL     -0.626056
    143 C46        -8.4180   -0.3410   -1.6140 c3        1 MOL      0.456928
    144 C47        -9.6080    0.3020   -2.3090 c         1 MOL      0.286378
    145 O19        -9.5330    0.6440   -3.4940 o         1 MOL     -0.497565
    146 C48        -8.2350   -1.7460   -2.1070 c3        1 MOL     -0.413312
    147 H67        -7.1820    0.7310   -2.8400 hn        1 MOL      0.320822
    148 H68        -8.5210   -0.2730   -0.5240 h1        1 MOL     -0.055954
    149 H69        -8.3190   -1.6020   -3.1820 hc        1 MOL      0.115108
    150 H70        -7.3050   -2.1990   -1.7560 hc        1 MOL      0.115108
    151 H71        -9.0370   -2.4130   -1.7890 hc        1 MOL      0.115108
    152 N14       -10.8010    0.3050   -1.7130 n         1 MOL     -0.254535
    153 C49       -11.0700   -0.0860   -0.2850 c3        1 MOL     -0.299175
    154 C50       -10.5560    0.9890    0.7230 c         1 MOL      0.493754
    155 O20       -10.1210    0.6720    1.8170 o         1 MOL     -0.519895
    156 C51       -12.6020   -0.0300   -0.0900 c3        1 MOL      0.437924
    157 C52       -13.4530   -1.0220   -0.8570 c3        1 MOL     -0.335226
    158 C53       -14.8900   -0.9300   -0.2890 c         1 MOL      0.720555
    159 O21       -15.1060   -1.2880    0.8870 o         1 MOL     -0.668135
    160 O22       -15.8400   -0.4370   -0.9760 o         1 MOL     -0.668135
    161 H72       -11.5100    0.8660   -2.1510 hn        1 MOL      0.290312
    162 H73       -10.7300   -1.0830   -0.0230 h1        1 MOL      0.142655
    163 H74       -12.9240    0.9980   -0.2810 hc        1 MOL     -0.065554
    164 H75       -12.8590   -0.1330    0.9680 hc        1 MOL     -0.065554
    165 H76       -13.0950   -2.0400   -0.7140 hc        1 MOL      0.028050
    166 H77       -13.4240   -0.7030   -1.8980 hc        1 MOL      0.028050
    167 N15       -10.5330    2.2280    0.2720 n         1 MOL     -0.263616
    168 C54       -10.0040    3.3510    1.0310 c3        1 MOL     -0.238077
    169 H78        -8.9790    3.5500    0.7180 h1        1 MOL      0.109976
    170 H79       -10.6160    4.2340    0.8490 h1        1 MOL      0.109976
    171 H80       -10.0190    3.1110    2.0940 h1        1 MOL      0.109976
    172 H81       -10.8990    2.3900   -0.6550 hn        1 MOL      0.251019
    173 Ca1         2.9580    0.2780   -1.0520 Ca        1 MOL      1.721717
    174 O23         3.9800    1.0260   -3.4170 oh        1 MOL     -0.859687
    175 H82         4.2080    0.1180   -3.6030 ho        1 MOL      0.420838
    176 H83         4.4420    1.5250   -4.0940 ho        1 MOL      0.420838
    177 O24         1.3350   -1.1050   -2.8300 oh        1 MOL     -0.859687
    178 H84         0.4370   -0.8420   -3.0490 ho        1 MOL      0.420838
    179 H85         1.5550   -1.7710   -3.4820 ho        1 MOL      0.420838
    180 O25         1.4050    2.3500   -1.9830 oh        1 MOL     -0.859687
    181 H86         0.5720    2.5210   -1.5420 ho        1 MOL      0.420838
    182 H87         1.2440    2.5940   -2.8940 ho        1 MOL      0.420838
@<TRIPOS>BOND
     1    1    2 1   
     2    1    4 1   
     3    1    5 1   
     4    1    6 1   
     5    2    3 2   
     6    2    7 1   
     7    7    8 1   
     8    7   15 1   
     9    8    9 1   
    10    8   11 1   
    11    8   16 1   
    12    9   10 2   
    13    9   19 1   
    14   11   12 1   
    15   11   17 1   
    16   11   18 1   
    17   12   13 1   
    18   12   14 1   
    19   19   20 1   
    20   19   28 1   
    21   20   21 1   
    22   20   23 1   
    23   20   29 1   
    24   21   22 2   
    25   21   41 1   
    26   23   24 1   
    27   23   30 1   
    28   23   31 1   
    29   24   25 1   
    30   24   32 1   
    31   24   33 1   
    32   25   26 1   
    33   25   34 1   
    34   25   35 1   
    35   26   27 1   
    36   26   36 1   
    37   26   37 1   
    38   27   38 1   
    39   27   39 1   
    40   27   40 1   
    41   41   42 1   
    42   41   49 1   
    43   42   43 1   
    44   42   45 1   
    45   42   50 1   
    46   43   44 2   
    47   43   53 1   
    48   45   46 1   
    49   45   51 1   
    50   45   52 1   
    51   46   47 1   
    52   46   48 1   
    53   53   54 1   
    54   53   57 1   
    55   54   55 1   
    56   54   58 1   
    57   54   59 1   
    58   55   56 2   
    59   55   60 1   
    60   60   61 1   
    61   60   68 1   
    62   61   62 1   
    63   61   64 1   
    64   61   69 1   
    65   62   63 2   
    66   62   74 1   
    67   64   65 1   
    68   64   70 1   
    69   64   71 1   
    70   65   66 1   
    71   65   67 2   
    72   66   72 1   
    73   66   73 1   
    74   74   75 1   
    75   74   78 1   
    76   75   76 1   
    77   75   79 1   
    78   75   80 1   
    79   76   77 2   
    80   76   81 1   
    81   81   82 1   
    82   81   93 1   
    83   82   83 1   
    84   82   85 1   
    85   82   94 1   
    86   83   84 2   
    87   83  102 1   
    88   85   86 1   
    89   85   95 1   
    90   85   96 1   
    91   86   87 ar  
    92   86   88 ar  
    93   87   89 ar  
    94   87   97 1   
    95   88   90 ar  
    96   88   98 1   
    97   89   91 ar  
    98   89   99 1   
    99   90   91 ar  
   100   90  100 1   
   101   91   92 1   
   102   92  101 1   
   103  102  103 1   
   104  102  110 1   
   105  103  104 1   
   106  103  106 1   
   107  103  111 1   
   108  104  105 2   
   109  104  121 1   
   110  106  107 1   
   111  106  108 1   
   112  106  112 1   
   113  107  109 1   
   114  107  113 1   
   115  107  114 1   
   116  108  115 1   
   117  108  116 1   
   118  108  117 1   
   119  109  118 1   
   120  109  119 1   
   121  109  120 1   
   122  121  122 1   
   123  121  127 1   
   124  122  123 1   
   125  122  125 1   
   126  122  128 1   
   127  123  124 2   
   128  123  132 1   
   129  125  126 1   
   130  125  129 1   
   131  125  130 1   
   132  126  131 1   
   133  132  133 1   
   134  132  137 1   
   135  133  134 1   
   136  133  136 1   
   137  133  138 1   
   138  134  135 2   
   139  134  142 1   
   140  136  139 1   
   141  136  140 1   
   142  136  141 1   
   143  142  143 1   
   144  142  147 1   
   145  143  144 1   
   146  143  146 1   
   147  143  148 1   
   148  144  145 2   
   149  144  152 1   
   150  146  149 1   
   151  146  150 1   
   152  146  151 1   
   153  152  153 1   
   154  152  161 1   
   155  153  154 1   
   156  153  156 1   
   157  153  162 1   
   158  154  155 2   
   159  154  167 1   
   160  156  157 1   
   161  156  163 1   
   162  156  164 1   
   163  157  158 1   
   164  157  165 1   
   165  157  166 1   
   166  158  159 1   
   167  158  160 1   
   168  167  168 1   
   169  167  172 1   
   170  168  169 1   
   171  168  170 1   
   172  168  171 1   
   173  174  175 1   
   174  174  176 1   
   175  177  178 1   
   176  177  179 1   
   177  180  181 1   
   178  180  182 1   
@<TRIPOS>SUBSTRUCTURE
     1 MOL         1 TEMP              0 ****  ****    0 ROOT
