@<TRIPOS>MOLECULE
MOL
  198   191     1     0     0
SMALL
resp


@<TRIPOS>ATOM
      1 C1          5.1420    2.2750    5.6140 c3        1 MOL     -0.422448
      2 C2          4.8160    2.1270    4.1110 c         1 MOL      0.754538
      3 O1          4.5920    3.1000    3.4150 o         1 MOL     -0.586487
      4 H1          4.2150    2.2770    6.1870 hc        1 MOL      0.117622
      5 H2          5.7650    1.4400    5.9350 hc        1 MOL      0.117622
      6 H3          5.6740    3.2120    5.7800 hc        1 MOL      0.117622
      7 N1          4.7280    0.8180    3.6270 n         1 MOL     -0.597288
      8 C3          4.5380    0.3260    2.3110 c3        1 MOL     -0.056052
      9 C4          3.0650   -0.0910    1.9880 c         1 MOL      0.556518
     10 O2          2.7990   -0.7200    0.9490 o         1 MOL     -0.535737
     11 C5          5.4260   -0.8870    2.0370 c3        1 MOL     -0.110762
     12 C6          5.2890   -2.0230    3.0660 c         1 MOL      0.638711
     13 O3          5.0530   -3.2310    2.7410 o         1 MOL     -0.674277
     14 O4          5.6260   -1.8010    4.2510 o         1 MOL     -0.674277
     15 H4          5.0210    0.1130    4.2990 hn        1 MOL      0.277858
     16 H5          4.8240    1.0810    1.5860 h1        1 MOL      0.152863
     17 H6          6.4720   -0.5700    1.9750 hc        1 MOL      0.065528
     18 H7          5.1190   -1.2290    1.0540 hc        1 MOL      0.065528
     19 N2          2.1910    0.0990    2.9800 n         1 MOL     -0.465486
     20 C7          0.7890   -0.1840    2.9090 c3        1 MOL      0.286079
     21 C8          0.0210    1.1310    2.8480 c         1 MOL      0.430555
     22 O5          0.4190    2.1630    3.4350 o         1 MOL     -0.544506
     23 C9          0.3520   -0.9860    4.1840 c3        1 MOL     -0.057443
     24 C10         0.6910   -2.5040    4.3940 c3        1 MOL     -0.177786
     25 C11         2.2090   -2.7650    4.4150 c3        1 MOL      0.013489
     26 C12         2.4100   -4.1300    4.7140 c3        1 MOL      0.237787
     27 N3          3.8490   -4.4580    4.9330 n4        1 MOL     -0.431003
     28 H8          2.5150    0.6950    3.7240 hn        1 MOL      0.248689
     29 H9          0.5920   -0.7260    1.9940 h1        1 MOL      0.138712
     30 H10        -0.7320   -1.0500    4.2810 hc        1 MOL      0.042329
     31 H11         0.6720   -0.3980    5.0550 hc        1 MOL      0.042329
     32 H12         0.1540   -3.1060    3.6710 hc        1 MOL      0.072151
     33 H13         0.2840   -2.7650    5.3670 hc        1 MOL      0.072151
     34 H14         2.6490   -2.1690    5.2140 hc        1 MOL      0.025809
     35 H15         2.6650   -2.5840    3.4490 hc        1 MOL      0.025809
     36 H16         2.0460   -4.7520    3.8990 hx        1 MOL     -0.002227
     37 H17         1.8650   -4.3980    5.6140 hx        1 MOL     -0.002227
     38 H18         4.0550   -5.4400    4.8500 hn        1 MOL      0.313527
     39 H19         4.3730   -3.9650    4.2260 hn        1 MOL      0.313527
     40 H20         4.1030   -4.0500    5.8200 hn        1 MOL      0.313527
     41 N4         -1.1980    1.2100    2.2780 n         1 MOL     -0.401717
     42 C13        -1.8100    0.3000    1.3030 c3        1 MOL     -0.521682
     43 C14        -2.1480   -1.0510    1.7950 c         1 MOL      0.534289
     44 O6         -1.3050   -1.9160    1.7060 o         1 MOL     -0.540483
     45 C15        -1.1030    0.2680   -0.0690 c3        1 MOL     -0.128435
     46 C16        -0.9500    1.6630   -0.7160 c         1 MOL      0.806650
     47 O7         -0.1680    1.8970   -1.6820 o         1 MOL     -0.809308
     48 O8         -1.4800    2.6710   -0.1820 o         1 MOL     -0.809308
     49 H21        -1.5800    2.1470    2.3360 hn        1 MOL      0.336776
     50 H22        -2.8020    0.7350    1.1560 h1        1 MOL      0.246890
     51 H23        -1.6050   -0.4250   -0.7450 hc        1 MOL      0.107511
     52 H24        -0.1020   -0.1450    0.0560 hc        1 MOL      0.107511
     53 N5         -3.2050   -1.2100    2.5900 n         1 MOL     -0.311680
     54 C17        -4.3710   -0.2370    2.9070 c3        1 MOL      0.003764
     55 C18        -5.5520   -1.1390    3.4430 c         1 MOL      0.539619
     56 O9         -5.4410   -2.3530    3.5690 o         1 MOL     -0.536087
     57 H25        -3.3180   -2.1640    2.9000 hn        1 MOL      0.246803
     58 H26        -4.6690    0.2750    1.9930 h1        1 MOL      0.052625
     59 H27        -4.1390    0.3890    3.7720 h1        1 MOL      0.052625
     60 N6         -6.7950   -0.6720    3.5840 n         1 MOL     -0.474707
     61 C19        -7.1530    0.6940    3.0790 c3        1 MOL      0.068713
     62 C20        -7.4810    0.8010    1.5810 c         1 MOL      0.578819
     63 O10        -7.6430   -0.1810    0.8900 o         1 MOL     -0.478871
     64 C21        -8.3040    1.2090    3.9550 c3        1 MOL     -0.205136
     65 C22        -9.6850    0.7410    3.5550 c         1 MOL      0.728203
     66 O11       -10.0790   -0.3740    4.0110 o         1 MOL     -0.705253
     67 O12       -10.4230    1.4260    2.8030 o         1 MOL     -0.705253
     68 H28        -7.5770   -1.2940    3.7360 hn        1 MOL      0.338530
     69 H29        -6.4100    1.4850    3.1850 h1        1 MOL     -0.000888
     70 H30        -8.2880    2.2990    3.9750 hc        1 MOL      0.014447
     71 H31        -8.0950    0.7730    4.9310 hc        1 MOL      0.014447
     72 N7         -7.5070    2.0330    1.1700 n         1 MOL     -0.375451
     73 C23        -8.1510    2.4800   -0.1150 c3        1 MOL     -0.416576
     74 C24        -7.4010    1.9740   -1.3420 c         1 MOL      0.638822
     75 O13        -7.9240    2.0020   -2.4550 o         1 MOL     -0.558986
     76 H32        -7.2910    2.7980    1.7900 hn        1 MOL      0.295171
     77 H33        -8.1900    3.5700   -0.0410 h1        1 MOL      0.199704
     78 H34        -9.1330    2.0210   -0.0520 h1        1 MOL      0.199704
     79 N8         -6.1790    1.4720   -1.1380 n         1 MOL     -0.496429
     80 C25        -5.3210    0.7590   -2.1230 c3        1 MOL      0.507879
     81 C26        -4.7660   -0.4720   -1.4100 c         1 MOL      0.232656
     82 O14        -4.5480   -0.3770   -0.2010 o         1 MOL     -0.382923
     83 C27        -4.2580    1.6300   -2.7120 c3        1 MOL      0.296883
     84 C28        -4.7960    2.5870   -3.8100 c3        1 MOL     -0.553807
     85 O15        -3.2130    0.8930   -3.3030 oh        1 MOL     -0.726560
     86 H35        -5.7580    1.6240   -0.2300 hn        1 MOL      0.185140
     87 H36        -5.9960    0.3650   -2.8840 h1        1 MOL      0.004256
     88 H37        -3.8560    2.1870   -1.8640 h1        1 MOL     -0.040114
     89 H38        -2.5840    1.5370   -3.6400 ho        1 MOL      0.518334
     90 H39        -4.8180    2.1080   -4.7920 hc        1 MOL      0.136735
     91 H40        -5.8010    2.8820   -3.4890 hc        1 MOL      0.136735
     92 H41        -4.1300    3.4500   -3.8750 hc        1 MOL      0.136735
     93 N9         -4.5640   -1.5870   -2.0990 n         1 MOL     -0.343509
     94 C29        -4.1200   -2.8690   -1.5750 c3        1 MOL     -0.105737
     95 C30        -2.8910   -3.4150   -2.3520 c         1 MOL      0.388293
     96 O16        -2.6950   -4.6460   -2.4100 o         1 MOL     -0.527355
     97 C31        -5.3050   -3.8370   -1.6100 c3        1 MOL      0.180244
     98 C32        -6.0460   -3.9960   -2.9650 c3        1 MOL     -0.063756
     99 C33        -6.2700   -3.3830   -0.5060 c3        1 MOL     -0.134028
    100 C34        -7.2610   -4.9040   -3.0390 c3        1 MOL     -0.248030
    101 H42        -4.7810   -1.5210   -3.0810 hn        1 MOL      0.225125
    102 H43        -3.7680   -2.7290   -0.5560 h1        1 MOL      0.153694
    103 H44        -4.8390   -4.7310   -1.1890 hc        1 MOL     -0.000726
    104 H45        -5.3290   -4.3390   -3.7210 hc        1 MOL      0.050332
    105 H46        -6.4920   -3.0700   -3.3250 hc        1 MOL      0.050332
    106 H47        -5.7780   -3.3230    0.4720 hc        1 MOL      0.041529
    107 H48        -6.7590   -2.4370   -0.7350 hc        1 MOL      0.041529
    108 H49        -6.9680   -4.2170   -0.4140 hc        1 MOL      0.041529
    109 H50        -7.0040   -5.9480   -2.8570 hc        1 MOL      0.069114
    110 H51        -8.0620   -4.5040   -2.4210 hc        1 MOL      0.069114
    111 H52        -7.6440   -4.8540   -4.0540 hc        1 MOL      0.069114
    112 N10        -2.1370   -2.6050   -3.0750 n         1 MOL     -0.178691
    113 C35        -1.0920   -3.1260   -3.9150 c3        1 MOL      0.002961
    114 C36         0.2730   -3.3370   -3.2520 c         1 MOL      0.378990
    115 O17         1.0090   -4.1590   -3.7120 o         1 MOL     -0.509611
    116 C37        -1.0730   -2.4110   -5.3240 c3        1 MOL      0.274417
    117 C38        -0.6630   -0.9320   -5.3100 c3        1 MOL     -0.178356
    118 O18        -2.3060   -2.4730   -5.8800 oh        1 MOL     -0.646871
    119 H53        -2.5020   -1.6660   -3.1740 hn        1 MOL      0.282882
    120 H54        -1.3300   -4.1330   -4.2290 h1        1 MOL      0.095167
    121 H55        -0.3930   -3.0420   -5.9010 h1        1 MOL      0.008938
    122 H56        -2.1320   -2.5720   -6.8130 ho        1 MOL      0.416585
    123 H57        -0.8370   -0.5030   -6.2940 hc        1 MOL      0.038651
    124 H58        -1.2410   -0.4100   -4.5440 hc        1 MOL      0.038651
    125 H59         0.4020   -0.8650   -5.0990 hc        1 MOL      0.038651
    126 N11         0.5450   -2.5020   -2.2140 n         1 MOL     -0.160288
    127 C39         1.8590   -2.3810   -1.5190 c3        1 MOL      0.047527
    128 C40         2.9540   -1.9280   -2.4800 c         1 MOL      0.521859
    129 O19         2.7560   -1.8190   -3.6900 o         1 MOL     -0.477568
    130 C41         2.1010   -3.5240   -0.6330 c3        1 MOL      0.431457
    131 C42         1.0200   -3.8640    0.4100 c3        1 MOL     -0.533094
    132 O20         3.2530   -3.3370    0.1360 oh        1 MOL     -0.619902
    133 H60        -0.1470   -1.8470   -1.8840 hn        1 MOL      0.069251
    134 H61         1.7470   -1.6010   -0.7580 h1        1 MOL      0.011840
    135 H62         2.2300   -4.3780   -1.2990 h1        1 MOL     -0.000517
    136 H63         3.0580   -2.6320    0.7520 ho        1 MOL      0.341055
    137 H64         1.2690   -4.7630    0.9740 hc        1 MOL      0.138797
    138 H65         1.0020   -3.0720    1.1650 hc        1 MOL      0.138797
    139 H66        -0.0020   -3.8670    0.0300 hc        1 MOL      0.138797
    140 N12         4.1240   -1.5840   -1.8400 n         1 MOL     -0.451357
    141 C43         5.3580   -1.2350   -2.5770 c3        1 MOL     -0.014104
    142 C44         5.9690    0.1740   -2.5170 c         1 MOL      0.510295
    143 O21         6.9680    0.3660   -3.2200 o         1 MOL     -0.562841
    144 C45         6.4810   -2.3400   -2.2740 c3        1 MOL     -0.269094
    145 C46         6.9330   -2.4100   -0.8160 c3        1 MOL      0.409917
    146 C47         8.1630   -3.3280   -0.6340 c3        1 MOL     -0.366221
    147 C48         8.0720   -4.7400   -1.1180 c3        1 MOL      0.228114
    148 N13         7.5330   -5.6820   -0.1700 n4        1 MOL     -0.402033
    149 H67         4.1770   -1.7330   -0.8470 hn        1 MOL      0.179054
    150 H68         5.1930   -1.3380   -3.6480 h1        1 MOL      0.114905
    151 H69         7.3440   -2.1790   -2.9080 hc        1 MOL      0.094105
    152 H70         5.9750   -3.2820   -2.5120 hc        1 MOL      0.094105
    153 H71         6.1320   -2.8000   -0.1910 hc        1 MOL     -0.077662
    154 H72         7.1360   -1.4090   -0.4550 hc        1 MOL     -0.077662
    155 H73         8.4800   -3.3410    0.4150 hc        1 MOL      0.104216
    156 H74         8.8950   -2.8420   -1.2820 hc        1 MOL      0.104216
    157 H75         9.0440   -5.0880   -1.4550 hx        1 MOL      0.034020
    158 H76         7.4420   -4.7160   -2.0080 hx        1 MOL      0.034020
    159 H77         8.2250   -5.8820    0.5370 hn        1 MOL      0.331890
    160 H78         6.7540   -5.3260    0.3730 hn        1 MOL      0.331890
    161 H79         7.2350   -6.5260   -0.6340 hn        1 MOL      0.331890
    162 N14         5.4150    1.0810   -1.7550 n         1 MOL     -0.255195
    163 C49         6.0270    2.4110   -1.6110 c3        1 MOL     -0.073940
    164 C50         7.1170    2.4260   -0.4820 c         1 MOL      0.384710
    165 O22         6.9940    1.9840    0.5990 o         1 MOL     -0.406936
    166 C51         5.0750    3.5480   -1.3390 c3        1 MOL      0.128292
    167 C52         4.2320    3.7560   -2.5470 c3        1 MOL     -0.084650
    168 C53         3.4100    5.0040   -2.3240 c         1 MOL      0.653197
    169 O23         3.9950    6.0940   -2.3040 o         1 MOL     -0.682871
    170 O24         2.1950    4.8680   -2.1270 o         1 MOL     -0.682871
    171 H80         4.6580    0.8520   -1.1260 hn        1 MOL      0.316646
    172 H81         6.5060    2.7970   -2.5140 h1        1 MOL      0.059382
    173 H82         5.6000    4.4940   -1.1940 hc        1 MOL     -0.038421
    174 H83         4.4270    3.3410   -0.4880 hc        1 MOL     -0.038421
    175 H84         3.6610    2.8330   -2.6770 hc        1 MOL      0.008857
    176 H85         4.7800    3.8500   -3.4900 hc        1 MOL      0.008857
    177 N15         8.2740    3.1330   -0.7140 n         1 MOL     -0.301968
    178 C54         9.4680    3.0870    0.0750 c3        1 MOL     -0.038994
    179 H86        10.3340    3.2400   -0.5670 h1        1 MOL      0.050816
    180 H87         9.4340    3.8710    0.8320 h1        1 MOL      0.050816
    181 H88         9.5450    2.1140    0.5620 h1        1 MOL      0.050816
    182 H89         8.3260    3.6500   -1.5870 hn        1 MOL      0.263754
    183 Ca1        -0.1040    4.6660   -0.8930 Ca        1 MOL      1.736865
    184 O25         1.4150    3.3910    0.7660 oh        1 MOL     -0.827738
    185 H90         2.1960    3.8580    1.0560 ho        1 MOL      0.409091
    186 H91         0.9580    3.1730    1.5820 ho        1 MOL      0.409091
    187 O26        -0.3390    7.0910   -2.1880 oh        1 MOL     -0.827738
    188 H92         0.2820    7.4610   -2.8110 ho        1 MOL      0.409091
    189 H93        -0.3210    7.6720   -1.4330 ho        1 MOL      0.409091
    190 O27         1.7480    6.7630    0.0650 oh        1 MOL     -0.827738
    191 H94         2.2140    6.3490    0.7880 ho        1 MOL      0.409091
    192 H95         2.4330    6.9910   -0.5580 ho        1 MOL      0.409091
    193 O28        -0.6020    5.1720    1.7470 oh        1 MOL     -0.827738
    194 H96        -0.8990    4.9120    2.6130 ho        1 MOL      0.409091
    195 H97        -0.9440    6.0610    1.6420 ho        1 MOL      0.409091
    196 O29        -2.0610    4.5380   -2.8000 oh        1 MOL     -0.827738
    197 H98        -2.7750    4.9210   -2.3020 ho        1 MOL      0.409091
    198 H99        -2.2680    4.7570   -3.7130 ho        1 MOL      0.409091
@<TRIPOS>BOND
     1    1    2 1   
     2    1    4 1   
     3    1    5 1   
     4    1    6 1   
     5    2    3 2   
     6    2    7 1   
     7    7    8 1   
     8    7   15 1   
     9    8    9 1   
    10    8   11 1   
    11    8   16 1   
    12    9   10 2   
    13    9   19 1   
    14   11   12 1   
    15   11   17 1   
    16   11   18 1   
    17   12   13 1   
    18   12   14 1   
    19   19   20 1   
    20   19   28 1   
    21   20   21 1   
    22   20   23 1   
    23   20   29 1   
    24   21   22 2   
    25   21   41 1   
    26   23   24 1   
    27   23   30 1   
    28   23   31 1   
    29   24   25 1   
    30   24   32 1   
    31   24   33 1   
    32   25   26 1   
    33   25   34 1   
    34   25   35 1   
    35   26   27 1   
    36   26   36 1   
    37   26   37 1   
    38   27   38 1   
    39   27   39 1   
    40   27   40 1   
    41   41   42 1   
    42   41   49 1   
    43   42   43 1   
    44   42   45 1   
    45   42   50 1   
    46   43   44 2   
    47   43   53 1   
    48   45   46 1   
    49   45   51 1   
    50   45   52 1   
    51   46   47 1   
    52   46   48 1   
    53   53   54 1   
    54   53   57 1   
    55   54   55 1   
    56   54   58 1   
    57   54   59 1   
    58   55   56 2   
    59   55   60 1   
    60   60   61 1   
    61   60   68 1   
    62   61   62 1   
    63   61   64 1   
    64   61   69 1   
    65   62   63 2   
    66   62   72 1   
    67   64   65 1   
    68   64   70 1   
    69   64   71 1   
    70   65   66 1   
    71   65   67 1   
    72   72   73 1   
    73   72   76 1   
    74   73   74 1   
    75   73   77 1   
    76   73   78 1   
    77   74   75 2   
    78   74   79 1   
    79   79   80 1   
    80   79   86 1   
    81   80   81 1   
    82   80   83 1   
    83   80   87 1   
    84   81   82 2   
    85   81   93 1   
    86   83   84 1   
    87   83   85 1   
    88   83   88 1   
    89   84   90 1   
    90   84   91 1   
    91   84   92 1   
    92   85   89 1   
    93   93   94 1   
    94   93  101 1   
    95   94   95 1   
    96   94   97 1   
    97   94  102 1   
    98   95   96 2   
    99   95  112 1   
   100   97   98 1   
   101   97   99 1   
   102   97  103 1   
   103   98  100 1   
   104   98  104 1   
   105   98  105 1   
   106   99  106 1   
   107   99  107 1   
   108   99  108 1   
   109  100  109 1   
   110  100  110 1   
   111  100  111 1   
   112  112  113 1   
   113  112  119 1   
   114  113  114 1   
   115  113  116 1   
   116  113  120 1   
   117  114  115 2   
   118  114  126 1   
   119  116  117 1   
   120  116  118 1   
   121  116  121 1   
   122  117  123 1   
   123  117  124 1   
   124  117  125 1   
   125  118  122 1   
   126  126  127 1   
   127  126  133 1   
   128  127  128 1   
   129  127  130 1   
   130  127  134 1   
   131  128  129 2   
   132  128  140 1   
   133  130  131 1   
   134  130  132 1   
   135  130  135 1   
   136  131  137 1   
   137  131  138 1   
   138  131  139 1   
   139  132  136 1   
   140  140  141 1   
   141  140  149 1   
   142  141  142 1   
   143  141  144 1   
   144  141  150 1   
   145  142  143 2   
   146  142  162 1   
   147  144  145 1   
   148  144  151 1   
   149  144  152 1   
   150  145  146 1   
   151  145  153 1   
   152  145  154 1   
   153  146  147 1   
   154  146  155 1   
   155  146  156 1   
   156  147  148 1   
   157  147  157 1   
   158  147  158 1   
   159  148  159 1   
   160  148  160 1   
   161  148  161 1   
   162  162  163 1   
   163  162  171 1   
   164  163  164 1   
   165  163  166 1   
   166  163  172 1   
   167  164  165 2   
   168  164  177 1   
   169  166  167 1   
   170  166  173 1   
   171  166  174 1   
   172  167  168 1   
   173  167  175 1   
   174  167  176 1   
   175  168  169 1   
   176  168  170 1   
   177  177  178 1   
   178  177  182 1   
   179  178  179 1   
   180  178  180 1   
   181  178  181 1   
   182  184  185 1   
   183  184  186 1   
   184  187  188 1   
   185  187  189 1   
   186  190  191 1   
   187  190  192 1   
   188  193  194 1   
   189  193  195 1   
   190  196  197 1   
   191  196  198 1   
@<TRIPOS>SUBSTRUCTURE
     1 MOL         1 TEMP              0 ****  ****    0 ROOT
