@<TRIPOS>MOLECULE
MOL
  188   182     1     0     0
SMALL
resp


@<TRIPOS>ATOM
      1 C1         -5.4620   -0.0060   -3.8040 c3        1 MOL     -0.176038
      2 C2         -6.0050    0.7640   -2.5700 c         1 MOL      0.639788
      3 O1         -5.2840    0.8140   -1.5360 o         1 MOL     -0.489018
      4 H1         -6.1930    0.0400   -4.6110 hc        1 MOL      0.045003
      5 H2         -4.5280    0.4490   -4.1350 hc        1 MOL      0.045003
      6 H3         -5.2830   -1.0470   -3.5350 hc        1 MOL      0.045003
      7 N1         -7.2680    1.2590   -2.5830 n         1 MOL     -0.466970
      8 C3         -8.0180    1.7870   -1.4150 c3        1 MOL      0.113702
      9 C4         -8.1840    0.8210   -0.2040 c         1 MOL      0.402175
     10 O2         -8.5050    1.2730    0.9270 o         1 MOL     -0.498594
     11 C5         -7.6040    3.2100   -0.9840 c3        1 MOL     -0.370514
     12 C6         -7.1530    4.2220   -2.0270 c         1 MOL      0.766902
     13 O3         -6.0530    4.2490   -2.5500 o         1 MOL     -0.637779
     14 O4         -8.0230    5.0770   -2.3660 o         1 MOL     -0.637779
     15 H4         -7.8390    1.1590   -3.4100 hn        1 MOL      0.293901
     16 H5         -9.0420    1.9460   -1.7670 h1        1 MOL      0.083815
     17 H6         -6.7810    3.1240   -0.2760 hc        1 MOL      0.110870
     18 H7         -8.4360    3.6240   -0.4190 hc        1 MOL      0.110870
     19 N2         -7.7150   -0.3920   -0.3870 n         1 MOL     -0.435352
     20 C7         -7.6160   -1.4320    0.6710 c3        1 MOL      0.305735
     21 C8         -6.1650   -1.8700    1.0110 c         1 MOL      0.649618
     22 O5         -6.0730   -2.7570    1.8730 o         1 MOL     -0.659538
     23 C9         -8.4950   -2.6520    0.3930 c3        1 MOL     -0.308976
     24 C10        -8.2160   -3.4740   -0.8830 c3        1 MOL      0.133737
     25 C11        -8.9330   -4.8530   -0.8620 c3        1 MOL     -0.021557
     26 C12        -8.4280   -5.8570   -1.8240 c3        1 MOL      0.016140
     27 N3         -7.5660   -6.7990   -1.0470 n4        1 MOL     -0.240043
     28 H8         -7.3620   -0.5820   -1.3040 hn        1 MOL      0.157702
     29 H9         -7.8160   -1.0410    1.6750 h1        1 MOL      0.048792
     30 H10        -9.5090   -2.2470    0.4480 hc        1 MOL      0.079776
     31 H11        -8.4000   -3.2610    1.2930 hc        1 MOL      0.079776
     32 H12        -7.1410   -3.6050   -0.9630 hc        1 MOL     -0.032521
     33 H13        -8.5060   -2.9210   -1.7820 hc        1 MOL     -0.032521
     34 H14        -9.9830   -4.6640   -1.0930 hc        1 MOL      0.045614
     35 H15        -9.0080   -5.2270    0.1670 hc        1 MOL      0.045614
     36 H16        -7.8700   -5.3870   -2.6440 hx        1 MOL      0.086608
     37 H17        -9.2500   -6.4120   -2.2690 hx        1 MOL      0.086608
     38 H18        -7.3430   -7.6340   -1.5710 hn        1 MOL      0.225325
     39 H19        -6.7450   -6.3530   -0.6800 hn        1 MOL      0.225325
     40 H20        -8.0890   -7.0970   -0.2300 hn        1 MOL      0.225325
     41 N4         -5.1360   -1.4190    0.3100 n         1 MOL     -0.626560
     42 C13        -3.7750   -1.8130    0.5460 c3        1 MOL      0.333320
     43 C14        -3.2790   -1.5180    1.9740 c         1 MOL      0.456456
     44 O6         -3.1950   -0.3390    2.3300 o         1 MOL     -0.500413
     45 C15        -2.8340   -1.3550   -0.6140 c3        1 MOL     -0.516435
     46 C16        -1.2890   -1.5600   -0.4360 c         1 MOL      0.722971
     47 O7         -0.8760   -2.3780    0.4250 o         1 MOL     -0.600240
     48 O8         -0.4880   -1.0060   -1.1820 o         1 MOL     -0.600240
     49 H21        -5.2890   -0.5990   -0.2620 hn        1 MOL      0.349498
     50 H22        -3.6550   -2.8960    0.4330 h1        1 MOL     -0.056707
     51 H23        -3.0210   -0.2720   -0.6670 hc        1 MOL      0.135160
     52 H24        -3.2650   -1.7530   -1.5260 hc        1 MOL      0.135160
     53 N5         -2.9940   -2.5230    2.7360 n         1 MOL     -0.218951
     54 C17        -2.5340   -2.4930    4.1550 c3        1 MOL     -0.094316
     55 C18        -1.3110   -1.5550    4.4030 c         1 MOL      0.419060
     56 O9         -0.9680   -1.1580    5.5750 o         1 MOL     -0.561299
     57 H25        -2.9530   -3.4550    2.3490 hn        1 MOL      0.206974
     58 H26        -2.2120   -3.4550    4.5450 h1        1 MOL      0.088058
     59 H27        -3.3400   -2.1880    4.8170 h1        1 MOL      0.088058
     60 N6         -0.5070   -1.2300    3.3700 n         1 MOL     -0.098542
     61 C19         0.6720   -0.3410    3.4190 c3        1 MOL     -0.062739
     62 C20         0.5130    1.1270    3.0500 c         1 MOL      0.537553
     63 O10         1.4180    1.9020    2.7780 o         1 MOL     -0.535412
     64 C21         1.8700   -0.9050    2.6650 c3        1 MOL     -0.210859
     65 C22         2.0720   -2.4100    2.6700 c         1 MOL      0.668807
     66 N7          3.1450   -2.8680    3.1820 n         1 MOL     -0.694530
     67 O11         1.2430   -3.1220    2.1120 o         1 MOL     -0.705482
     68 H28        -0.7430   -1.6410    2.4790 hn        1 MOL      0.120684
     69 H29         0.9580   -0.3200    4.4710 h1        1 MOL      0.077137
     70 H30         2.7900   -0.4950    3.0830 hc        1 MOL      0.088893
     71 H31         1.8860   -0.5900    1.6280 hc        1 MOL      0.088893
     72 H32         3.7440   -2.3030    3.7640 hn        1 MOL      0.349099
     73 H33         3.2110   -3.8720    3.2610 hn        1 MOL      0.349099
     74 N8         -0.7290    1.5320    2.9530 n         1 MOL     -0.276856
     75 C23        -1.1790    2.9080    2.7380 c3        1 MOL     -0.191735
     76 C24        -0.8310    3.3440    1.3640 c         1 MOL      0.674623
     77 O12        -0.9830    2.6000    0.3640 o         1 MOL     -0.543110
     78 H34        -1.4450    0.8880    3.2460 hn        1 MOL      0.244008
     79 H35        -0.7540    3.5860    3.4810 h1        1 MOL      0.103963
     80 H36        -2.2620    2.9050    2.8430 h1        1 MOL      0.103963
     81 N9         -0.3260    4.5280    1.2040 n         1 MOL     -0.629679
     82 C25         0.1680    5.0530   -0.0230 c3        1 MOL     -0.059934
     83 C26         1.4560    4.3980   -0.5130 c         1 MOL      0.719901
     84 O13         2.3090    5.1460   -0.9900 o         1 MOL     -0.599032
     85 C27        -0.9220    5.3000   -1.0720 c3        1 MOL     -0.065728
     86 C28        -2.0130    6.1680   -0.5490 ca        1 MOL     -0.057817
     87 C29        -1.9390    7.5300   -0.5770 ca        1 MOL      0.001618
     88 C30        -3.2890    5.5680   -0.3630 ca        1 MOL      0.001618
     89 C31        -3.0380    8.4080   -0.4590 ca        1 MOL     -0.456649
     90 C32        -4.4020    6.3800   -0.2690 ca        1 MOL     -0.456649
     91 C33        -4.3250    7.7890   -0.3280 ca        1 MOL      0.546624
     92 O14        -5.4870    8.4680   -0.2000 oh        1 MOL     -0.540213
     93 H37        -0.2520    5.0380    2.0790 hn        1 MOL      0.366427
     94 H38         0.4420    6.0680    0.2780 h1        1 MOL      0.079754
     95 H39        -1.3950    4.3560   -1.3580 hc        1 MOL      0.084133
     96 H40        -0.4090    5.6670   -1.9530 hc        1 MOL      0.084133
     97 H41        -0.9970    7.9550   -0.8750 ha        1 MOL      0.099237
     98 H42        -3.4590    4.5200   -0.1790 ha        1 MOL      0.099237
     99 H43        -2.8990    9.4750   -0.5270 ha        1 MOL      0.188134
    100 H44        -5.3820    5.9250   -0.2460 ha        1 MOL      0.188134
    101 H45        -6.1530    7.8010   -0.0120 ho        1 MOL      0.383132
    102 N10         1.6030    3.0590   -0.3390 n         1 MOL     -0.599396
    103 C34         2.7500    2.1590   -0.6270 c3        1 MOL      0.118690
    104 C35         3.9390    2.3840    0.2770 c         1 MOL      0.296392
    105 O15         4.5190    1.3160    0.7130 o         1 MOL     -0.508505
    106 C36         3.1580    2.2650   -2.0830 c3        1 MOL     -0.020718
    107 C37         1.9970    2.1250   -3.0590 c3        1 MOL      0.456345
    108 C38         4.4650    1.4300   -2.4300 c3        1 MOL     -0.799078
    109 C39         2.3800    2.3680   -4.5040 c3        1 MOL     -0.271901
    110 H46         0.7710    2.5930   -0.0220 hn        1 MOL      0.337055
    111 H47         2.4420    1.1190   -0.5290 h1        1 MOL      0.085544
    112 H48         3.4100    3.3160   -2.1980 hc        1 MOL      0.018132
    113 H49         1.1870    2.8120   -2.8000 hc        1 MOL     -0.084666
    114 H50         1.5210    1.1540   -2.9460 hc        1 MOL     -0.084666
    115 H51         5.2270    1.6210   -1.6680 hc        1 MOL      0.210726
    116 H52         4.2170    0.3820   -2.5190 hc        1 MOL      0.210726
    117 H53         4.8710    1.7750   -3.3880 hc        1 MOL      0.210726
    118 H54         2.7220    3.3990   -4.4940 hc        1 MOL      0.047222
    119 H55         3.2480    1.7750   -4.7920 hc        1 MOL      0.047222
    120 H56         1.5390    2.1670   -5.1750 hc        1 MOL      0.047222
    121 N11         4.3410    3.5810    0.5400 n         1 MOL     -0.080360
    122 C40         5.3200    4.0020    1.5970 c3        1 MOL     -0.275977
    123 C41         6.6950    3.5290    1.2440 c         1 MOL      0.347813
    124 O16         7.3960    3.2990    2.2200 o         1 MOL     -0.489443
    125 C42         5.3260    5.5300    1.6320 c3        1 MOL      0.319998
    126 O17         4.0060    6.0800    1.8770 oh        1 MOL     -0.631771
    127 H57         3.8820    4.2630   -0.0550 hn        1 MOL      0.210648
    128 H58         5.0100    3.5110    2.5140 h1        1 MOL      0.171427
    129 H59         5.7690    5.8380    0.6870 h1        1 MOL      0.031751
    130 H60         5.8880    5.9840    2.4410 h1        1 MOL      0.031751
    131 H61         3.4070    5.4590    2.2880 ho        1 MOL      0.402002
    132 N12         7.1000    3.3600   -0.0120 n         1 MOL     -0.164609
    133 C43         8.3280    2.6680   -0.4880 c3        1 MOL      0.081558
    134 C44         8.5530    1.2830   -0.0480 c         1 MOL      0.606935
    135 O18         9.6990    0.8310    0.1070 o         1 MOL     -0.563180
    136 C45         9.4100    3.6790   -0.2670 c3        1 MOL     -0.481902
    137 H62         6.5000    3.8700   -0.6450 hn        1 MOL      0.194563
    138 H63         8.1210    2.4710   -1.5400 h1        1 MOL      0.066401
    139 H64         9.7130    3.7700    0.7800 hc        1 MOL      0.135620
    140 H65        10.2710    3.3250   -0.8250 hc        1 MOL      0.135620
    141 H66         9.0760    4.6790   -0.5610 hc        1 MOL      0.135620
    142 N13         7.4670    0.5710   -0.0040 n         1 MOL     -0.723418
    143 C46         7.4550   -0.8910    0.2440 c3        1 MOL      0.580705
    144 C47         6.8180   -1.7560   -0.8980 c         1 MOL      0.141025
    145 O19         6.1900   -1.1930   -1.7940 o         1 MOL     -0.401764
    146 C48         6.6590   -1.0500    1.5990 c3        1 MOL     -0.278353
    147 H67         6.5990    1.0920   -0.0480 hn        1 MOL      0.443841
    148 H68         8.4460   -1.3130    0.4330 h1        1 MOL     -0.056748
    149 H69         6.7000   -2.1330    1.7860 hc        1 MOL      0.056520
    150 H70         7.1920   -0.5120    2.3780 hc        1 MOL      0.056520
    151 H71         5.6990   -0.5950    1.3730 hc        1 MOL      0.056520
    152 N14         6.8130   -3.0700   -0.7480 n         1 MOL     -0.239699
    153 C49         6.1700   -4.1840   -1.4790 c3        1 MOL      0.003202
    154 C50         6.3590   -4.1760   -3.0800 c         1 MOL      0.279864
    155 O20         5.4280   -4.5480   -3.8590 o         1 MOL     -0.444979
    156 C51         4.6710   -4.2370   -1.0040 c3        1 MOL     -0.014810
    157 C52         4.2490   -5.7640   -0.9970 c3        1 MOL     -0.083979
    158 C53         2.8010   -5.9620   -0.5170 c         1 MOL      0.635714
    159 O21         2.6010   -5.7230    0.6550 o         1 MOL     -0.712731
    160 O22         1.8530   -6.2150   -1.2570 o         1 MOL     -0.712731
    161 H72         7.4240   -3.4350   -0.0320 hn        1 MOL      0.228223
    162 H73         6.6690   -5.0800   -1.1290 h1        1 MOL      0.055796
    163 H74         3.9420   -3.7000   -1.6170 hc        1 MOL      0.046337
    164 H75         4.5860   -3.9320    0.0390 hc        1 MOL      0.046337
    165 H76         4.8820   -6.4100   -0.3980 hc        1 MOL      0.020098
    166 H77         4.3130   -6.1060   -2.0360 hc        1 MOL      0.020098
    167 N15         7.4780   -3.6710   -3.5420 n         1 MOL     -0.173153
    168 C54         7.7570   -3.0520   -4.8520 c3        1 MOL     -0.077775
    169 H78         7.4750   -3.7430   -5.6470 h1        1 MOL      0.074173
    170 H79         7.1800   -2.1330   -4.9500 h1        1 MOL      0.074173
    171 H80         8.8200   -2.8250   -4.9280 h1        1 MOL      0.074173
    172 H81         8.2250   -3.6670   -2.8610 hn        1 MOL      0.197757
    173 Ca1         0.2950   -4.6470    0.2590 Ca        1 MOL      1.699085
    174 O23        -0.9390   -4.7050   -2.1010 oh        1 MOL     -0.821780
    175 H82        -1.8680   -4.7290   -2.2910 ho        1 MOL      0.405243
    176 H83        -0.5180   -4.5450   -2.9520 ho        1 MOL      0.405243
    177 O24        -2.4220   -5.0460    0.5780 oh        1 MOL     -0.821780
    178 H84        -2.8630   -5.0680   -0.2650 ho        1 MOL      0.405243
    179 H85        -2.9250   -5.6470    1.1270 ho        1 MOL      0.405243
    180 O25        -0.3720   -5.2170    2.8380 oh        1 MOL     -0.821780
    181 H86        -1.1250   -5.2470    3.4210 ho        1 MOL      0.405243
    182 H87         0.3150   -5.6810    3.3210 ho        1 MOL      0.405243
    183 O26        -0.4850   -7.3550    0.0740 oh        1 MOL     -0.821780
    184 H88        -1.0500   -7.9050    0.6150 ho        1 MOL      0.405243
    185 H89         0.1870   -7.9520   -0.2500 ho        1 MOL      0.405243
    186 O27         1.7980   -2.7380   -1.0690 oh        1 MOL     -0.821780
    187 H90         1.2680   -1.9360   -1.0990 ho        1 MOL      0.405243
    188 H91         2.6660   -2.4310   -0.8040 ho        1 MOL      0.405243
@<TRIPOS>BOND
     1    1    2 1   
     2    1    4 1   
     3    1    5 1   
     4    1    6 1   
     5    2    3 2   
     6    2    7 1   
     7    7    8 1   
     8    7   15 1   
     9    8    9 1   
    10    8   11 1   
    11    8   16 1   
    12    9   10 2   
    13    9   19 1   
    14   11   12 1   
    15   11   17 1   
    16   11   18 1   
    17   12   13 1   
    18   12   14 1   
    19   19   20 1   
    20   19   28 1   
    21   20   21 1   
    22   20   23 1   
    23   20   29 1   
    24   21   22 2   
    25   21   41 1   
    26   23   24 1   
    27   23   30 1   
    28   23   31 1   
    29   24   25 1   
    30   24   32 1   
    31   24   33 1   
    32   25   26 1   
    33   25   34 1   
    34   25   35 1   
    35   26   27 1   
    36   26   36 1   
    37   26   37 1   
    38   27   38 1   
    39   27   39 1   
    40   27   40 1   
    41   41   42 1   
    42   41   49 1   
    43   42   43 1   
    44   42   45 1   
    45   42   50 1   
    46   43   44 2   
    47   43   53 1   
    48   45   46 1   
    49   45   51 1   
    50   45   52 1   
    51   46   47 1   
    52   46   48 1   
    53   53   54 1   
    54   53   57 1   
    55   54   55 1   
    56   54   58 1   
    57   54   59 1   
    58   55   56 2   
    59   55   60 1   
    60   60   61 1   
    61   60   68 1   
    62   61   62 1   
    63   61   64 1   
    64   61   69 1   
    65   62   63 2   
    66   62   74 1   
    67   64   65 1   
    68   64   70 1   
    69   64   71 1   
    70   65   66 1   
    71   65   67 2   
    72   66   72 1   
    73   66   73 1   
    74   74   75 1   
    75   74   78 1   
    76   75   76 1   
    77   75   79 1   
    78   75   80 1   
    79   76   77 2   
    80   76   81 1   
    81   81   82 1   
    82   81   93 1   
    83   82   83 1   
    84   82   85 1   
    85   82   94 1   
    86   83   84 2   
    87   83  102 1   
    88   85   86 1   
    89   85   95 1   
    90   85   96 1   
    91   86   87 ar  
    92   86   88 ar  
    93   87   89 ar  
    94   87   97 1   
    95   88   90 ar  
    96   88   98 1   
    97   89   91 ar  
    98   89   99 1   
    99   90   91 ar  
   100   90  100 1   
   101   91   92 1   
   102   92  101 1   
   103  102  103 1   
   104  102  110 1   
   105  103  104 1   
   106  103  106 1   
   107  103  111 1   
   108  104  105 2   
   109  104  121 1   
   110  106  107 1   
   111  106  108 1   
   112  106  112 1   
   113  107  109 1   
   114  107  113 1   
   115  107  114 1   
   116  108  115 1   
   117  108  116 1   
   118  108  117 1   
   119  109  118 1   
   120  109  119 1   
   121  109  120 1   
   122  121  122 1   
   123  121  127 1   
   124  122  123 1   
   125  122  125 1   
   126  122  128 1   
   127  123  124 2   
   128  123  132 1   
   129  125  126 1   
   130  125  129 1   
   131  125  130 1   
   132  126  131 1   
   133  132  133 1   
   134  132  137 1   
   135  133  134 1   
   136  133  136 1   
   137  133  138 1   
   138  134  135 2   
   139  134  142 1   
   140  136  139 1   
   141  136  140 1   
   142  136  141 1   
   143  142  143 1   
   144  142  147 1   
   145  143  144 1   
   146  143  146 1   
   147  143  148 1   
   148  144  145 2   
   149  144  152 1   
   150  146  149 1   
   151  146  150 1   
   152  146  151 1   
   153  152  153 1   
   154  152  161 1   
   155  153  154 1   
   156  153  156 1   
   157  153  162 1   
   158  154  155 2   
   159  154  167 1   
   160  156  157 1   
   161  156  163 1   
   162  156  164 1   
   163  157  158 1   
   164  157  165 1   
   165  157  166 1   
   166  158  159 1   
   167  158  160 1   
   168  167  168 1   
   169  167  172 1   
   170  168  169 1   
   171  168  170 1   
   172  168  171 1   
   173  174  175 1   
   174  174  176 1   
   175  177  178 1   
   176  177  179 1   
   177  180  181 1   
   178  180  182 1   
   179  183  184 1   
   180  183  185 1   
   181  186  187 1   
   182  186  188 1   
@<TRIPOS>SUBSTRUCTURE
     1 MOL         1 TEMP              0 ****  ****    0 ROOT
