@<TRIPOS>MOLECULE
MOL
  182   178     1     0     0
SMALL
resp


@<TRIPOS>ATOM
      1 C1          1.1820   -3.8540    6.4870 c3        1 MOL     -0.396551
      2 C2          1.1320   -3.7360    4.8800 c         1 MOL      0.685501
      3 O1          0.0840   -3.9140    4.2440 o         1 MOL     -0.566686
      4 H1          0.9130   -4.8680    6.7850 hc        1 MOL      0.110723
      5 H2          2.1890   -3.6290    6.8390 hc        1 MOL      0.110723
      6 H3          0.4760   -3.1480    6.9260 hc        1 MOL      0.110723
      7 N1          2.2240   -3.2790    4.3240 n         1 MOL     -0.552257
      8 C3          2.4160   -2.9230    2.9270 c3        1 MOL     -0.032831
      9 C4          2.3640   -4.1720    2.0000 c         1 MOL      0.658258
     10 O2          2.8900   -5.1940    2.3780 o         1 MOL     -0.580450
     11 C5          3.6350   -2.0150    2.8110 c3        1 MOL     -0.084881
     12 C6          3.6770   -1.2710    1.4920 c         1 MOL      0.722070
     13 O3          4.1210   -0.1460    1.4350 o         1 MOL     -0.743243
     14 O4          3.3440   -1.7350    0.3780 o         1 MOL     -0.743243
     15 H4          3.0300   -3.3990    4.9190 hn        1 MOL      0.319552
     16 H5          1.6070   -2.2830    2.5780 h1        1 MOL      0.014505
     17 H6          4.5330   -2.6100    2.9590 hc        1 MOL      0.057684
     18 H7          3.6640   -1.2530    3.5830 hc        1 MOL      0.057684
     19 N2          1.8860   -4.1000    0.7910 n         1 MOL     -0.241915
     20 C7          1.9500   -5.1940   -0.1570 c3        1 MOL      0.030465
     21 C8          2.8890   -4.9270   -1.3330 c         1 MOL      0.420318
     22 O5          2.9910   -5.8070   -2.2110 o         1 MOL     -0.555978
     23 C9          0.4710   -5.4900   -0.5000 c3        1 MOL     -0.018753
     24 C10         0.3570   -6.8530   -1.2170 c3        1 MOL      0.022495
     25 C11        -1.1260   -7.1340   -1.5940 c3        1 MOL     -0.154656
     26 C12        -1.3480   -8.4530   -2.3070 c3        1 MOL      0.171581
     27 N3         -2.6890   -8.7520   -2.7830 n4        1 MOL     -0.258976
     28 H8          1.5600   -3.1790    0.5320 hn        1 MOL     -0.118597
     29 H9          2.3550   -6.0830    0.3490 h1        1 MOL      0.108332
     30 H10         0.0590   -4.7070   -1.1440 hc        1 MOL      0.071094
     31 H11        -0.1900   -5.6090    0.3700 hc        1 MOL      0.071094
     32 H12         0.8200   -7.6710   -0.6600 hc        1 MOL      0.026206
     33 H13         0.8910   -6.8300   -2.1630 hc        1 MOL      0.026206
     34 H14        -1.4410   -6.2750   -2.1950 hc        1 MOL      0.039834
     35 H15        -1.6360   -7.2070   -0.6280 hc        1 MOL      0.039834
     36 H16        -0.9590   -9.2700   -1.6930 hx        1 MOL      0.041474
     37 H17        -0.7080   -8.4590   -3.1940 hx        1 MOL      0.041474
     38 H18        -2.9670   -8.0650   -3.4720 hn        1 MOL      0.245339
     39 H19        -2.8030   -9.6810   -3.1690 hn        1 MOL      0.245339
     40 H20        -3.3960   -8.6360   -2.0680 hn        1 MOL      0.245339
     41 N4          3.5880   -3.7430   -1.4200 n         1 MOL     -0.027920
     42 C13         4.8300   -3.5660   -2.1760 c3        1 MOL     -0.055737
     43 C14         6.0520   -3.3070   -1.3840 c         1 MOL      0.481293
     44 O6          7.1240   -3.3270   -1.9100 o         1 MOL     -0.498429
     45 C15         4.6960   -2.5580   -3.3460 c3        1 MOL     -0.235444
     46 C16         4.1440   -1.2580   -2.8460 c         1 MOL      0.710138
     47 O7          4.7400   -0.5800   -2.0350 o         1 MOL     -0.685234
     48 O8          3.0400   -0.8620   -3.1700 o         1 MOL     -0.685234
     49 H21         3.3900   -3.0120   -0.7510 hn        1 MOL     -0.011115
     50 H22         5.0110   -4.4790   -2.7420 h1        1 MOL      0.125172
     51 H23         3.9640   -2.9330   -4.0630 hc        1 MOL      0.085983
     52 H24         5.6650   -2.4270   -3.8270 hc        1 MOL      0.085983
     53 N5          5.9760   -3.0200   -0.0450 n         1 MOL     -0.387516
     54 C17         7.0340   -2.5190    0.8650 c3        1 MOL      0.085642
     55 C18         7.4490   -1.0370    0.6890 c         1 MOL      0.435713
     56 O9          8.5540   -0.6770    1.1700 o         1 MOL     -0.572921
     57 H25         5.0560   -2.9930    0.3650 hn        1 MOL      0.221665
     58 H26         7.9530   -3.0970    0.8710 h1        1 MOL      0.057193
     59 H27         6.6610   -2.5940    1.8840 h1        1 MOL      0.057193
     60 N6          6.7970   -0.1880   -0.1010 n         1 MOL     -0.191098
     61 C19         7.3140    1.1180   -0.4730 c3        1 MOL      0.163251
     62 C20         6.2250    2.1880   -0.5340 c         1 MOL      0.242251
     63 O10         5.0450    1.9400   -0.4830 o         1 MOL     -0.241477
     64 C21         8.1420    0.9790   -1.7090 c3        1 MOL     -0.366302
     65 C22         7.5870    1.4120   -3.0460 c         1 MOL      0.581608
     66 N7          6.3630    1.1850   -3.4290 n         1 MOL     -0.659592
     67 O11         8.2930    1.9930   -3.8470 o         1 MOL     -0.585186
     68 H28         6.0300   -0.5040   -0.6810 hn        1 MOL      0.203197
     69 H29         8.0210    1.3930    0.3090 h1        1 MOL      0.083133
     70 H30         8.4080   -0.0710   -1.8570 hc        1 MOL      0.144378
     71 H31         9.0950    1.4670   -1.5110 hc        1 MOL      0.144378
     72 H32         5.7760    0.7440   -2.7430 hn        1 MOL      0.345422
     73 H33         5.9470    1.2940   -4.3460 hn        1 MOL      0.345422
     74 N8          6.5090    3.5190   -0.6730 n         1 MOL     -0.411214
     75 C23         5.4930    4.5270   -0.9660 c3        1 MOL      0.053483
     76 C24         4.4670    4.8040    0.1480 c         1 MOL      0.534901
     77 O12         4.8750    4.9200    1.2970 o         1 MOL     -0.501919
     78 H34         7.4900    3.7710   -0.7590 hn        1 MOL      0.305593
     79 H35         4.9490    4.3060   -1.8880 h1        1 MOL      0.035927
     80 H36         5.9320    5.5170   -1.1300 h1        1 MOL      0.035927
     81 N9          3.1420    4.8400   -0.1720 n         1 MOL     -0.610902
     82 C25         2.0300    4.7870    0.8260 c3        1 MOL      0.530034
     83 C26         1.6830    3.3460    1.2480 c         1 MOL      0.274141
     84 O13         2.2920    2.4650    0.6780 o         1 MOL     -0.380574
     85 C27         0.8170    5.3340    0.0990 c3        1 MOL     -0.247602
     86 C28         0.7570    6.7830   -0.3120 ca        1 MOL      0.070625
     87 C29        -0.3660    7.2350   -1.0690 ca        1 MOL     -0.202459
     88 C30         1.5290    7.7740    0.2700 ca        1 MOL     -0.202459
     89 C31        -0.6570    8.5880   -1.1590 ca        1 MOL     -0.165351
     90 C32         1.4160    9.1290    0.0080 ca        1 MOL     -0.165351
     91 C33         0.2380    9.5010   -0.6630 ca        1 MOL      0.268321
     92 O14        -0.0180   10.8270   -0.9370 oh        1 MOL     -0.474998
     93 H37         2.8930    4.6930   -1.1410 hn        1 MOL      0.286357
     94 H38         2.3020    5.3070    1.7450 h1        1 MOL      0.003472
     95 H39        -0.1180    5.0600    0.5890 hc        1 MOL      0.047554
     96 H40         0.8520    4.6400   -0.7420 hc        1 MOL      0.047554
     97 H41        -0.9930    6.5830   -1.6580 ha        1 MOL      0.126648
     98 H42         2.1960    7.4470    1.0630 ha        1 MOL      0.126648
     99 H43        -1.4130    8.8970   -1.8720 ha        1 MOL      0.144646
    100 H44         2.0420    9.9080    0.4250 ha        1 MOL      0.144646
    101 H45        -0.9310   11.0120   -1.1670 ho        1 MOL      0.354210
    102 N10         0.7610    3.1430    2.2000 n         1 MOL     -0.477994
    103 C34         0.4920    1.7860    2.7710 c3        1 MOL      0.018142
    104 C35         0.0970    0.6290    1.8200 c         1 MOL      0.196428
    105 O15         0.9640    0.0620    1.1120 o         1 MOL     -0.151372
    106 C36         1.6500    1.4000    3.7420 c3        1 MOL      0.277866
    107 C37         1.1990    0.2070    4.6510 c3        1 MOL     -0.307438
    108 C38         2.1700    2.5210    4.6760 c3        1 MOL     -0.119991
    109 C39        -0.1000    0.2510    5.4170 c3        1 MOL     -0.234978
    110 H46         0.2050    3.9210    2.5310 hn        1 MOL      0.302058
    111 H47        -0.3630    1.9340    3.4250 h1        1 MOL      0.093962
    112 H48         2.5430    1.0750    3.2100 hc        1 MOL      0.012325
    113 H49         1.9330    0.0030    5.4170 hc        1 MOL      0.129917
    114 H50         1.0400   -0.6300    3.9670 hc        1 MOL      0.129917
    115 H51         1.4270    2.6770    5.4530 hc        1 MOL      0.025538
    116 H52         3.1510    2.3150    5.1040 hc        1 MOL      0.025538
    117 H53         2.1590    3.4800    4.1680 hc        1 MOL      0.025538
    118 H54        -0.9550    0.5560    4.8260 hc        1 MOL      0.068729
    119 H55        -0.3170   -0.6670    5.9570 hc        1 MOL      0.068729
    120 H56        -0.0050    1.0100    6.2090 hc        1 MOL      0.068729
    121 N11        -1.2100    0.3500    1.7280 n         1 MOL     -0.257132
    122 C40        -1.7920   -0.6060    0.7900 c3        1 MOL     -0.179946
    123 C41        -3.3030   -0.5320    0.6610 c         1 MOL      0.646718
    124 O16        -4.0020   -0.9730    1.5820 o         1 MOL     -0.523026
    125 C42        -1.3840   -2.0280    1.1440 c3        1 MOL      0.362079
    126 O17        -1.8960   -3.0470    0.3040 oh        1 MOL     -0.588229
    127 H57        -1.7680    0.9010    2.3610 hn        1 MOL      0.272280
    128 H58        -1.4450   -0.3250   -0.1980 h1        1 MOL      0.034562
    129 H59        -1.4980   -2.2000    2.2100 h1        1 MOL      0.053997
    130 H60        -0.2920   -2.0750    1.1160 h1        1 MOL      0.053997
    131 H61        -1.6790   -2.7560   -0.5830 ho        1 MOL      0.323401
    132 N12        -3.7640    0.0880   -0.4120 n         1 MOL     -0.668369
    133 C43        -5.2330    0.1150   -0.6390 c3        1 MOL      0.203926
    134 C44        -5.5100    0.0860   -2.1560 c         1 MOL      0.576813
    135 O18        -4.6930    0.5780   -2.9630 o         1 MOL     -0.572684
    136 C45        -5.7990    1.4200    0.0040 c3        1 MOL     -0.152989
    137 H62        -3.2170    0.6080   -1.0790 hn        1 MOL      0.338282
    138 H63        -5.7150   -0.6850   -0.0760 h1        1 MOL      0.065517
    139 H64        -6.8770    1.3160   -0.1410 hc        1 MOL      0.048549
    140 H65        -5.6650    1.5150    1.0830 hc        1 MOL      0.048549
    141 H66        -5.3940    2.2440   -0.5760 hc        1 MOL      0.048549
    142 N13        -6.6370   -0.4180   -2.5750 n         1 MOL     -0.615448
    143 C46        -7.8860   -0.7520   -1.8590 c3        1 MOL      0.390676
    144 C47        -9.0360    0.0950   -2.2980 c         1 MOL      0.319884
    145 O19        -9.1180    0.4900   -3.5060 o         1 MOL     -0.519407
    146 C48        -8.1690   -2.2140   -2.1440 c3        1 MOL     -0.501560
    147 H67        -6.6830   -0.4840   -3.5870 hn        1 MOL      0.340478
    148 H68        -7.7620   -0.6110   -0.7850 h1        1 MOL      0.025089
    149 H69        -9.1440   -2.5690   -1.8250 hc        1 MOL      0.142010
    150 H70        -8.1850   -2.4690   -3.2010 hc        1 MOL      0.142010
    151 H71        -7.4220   -2.8420   -1.6620 hc        1 MOL      0.142010
    152 N14       -10.0250    0.3780   -1.4460 n         1 MOL     -0.265381
    153 C49       -10.1810   -0.0140   -0.0370 c3        1 MOL      0.012860
    154 C50        -9.5630    1.0060    0.9280 c         1 MOL      0.488497
    155 O20        -9.2370    0.7250    2.1210 o         1 MOL     -0.521081
    156 C51       -11.6410   -0.4900    0.2860 c3        1 MOL     -0.005261
    157 C52       -12.7810    0.2830   -0.3720 c3        1 MOL     -0.096597
    158 C53       -14.2040   -0.2090    0.0090 c         1 MOL      0.629370
    159 O21       -14.4770   -0.7200    1.1820 o         1 MOL     -0.629609
    160 O22       -15.1310    0.1130   -0.7620 o         1 MOL     -0.629609
    161 H72       -10.7180    1.0320   -1.7740 hn        1 MOL      0.251158
    162 H73        -9.5830   -0.9010    0.1970 h1        1 MOL      0.018457
    163 H74       -11.7860   -0.4870    1.3640 hc        1 MOL      0.019641
    164 H75       -11.7590   -1.5160   -0.0550 hc        1 MOL      0.019641
    165 H76       -12.5910    0.2100   -1.4430 hc        1 MOL      0.010719
    166 H77       -12.7440    1.3350   -0.1160 hc        1 MOL      0.010719
    167 N15        -9.5520    2.2630    0.5040 n         1 MOL     -0.266652
    168 C54        -8.8950    3.3440    1.3090 c3        1 MOL     -0.316563
    169 H78        -8.8750    4.2670    0.7300 h1        1 MOL      0.137673
    170 H79        -9.4580    3.5050    2.2290 h1        1 MOL      0.137673
    171 H80        -7.8750    3.0480    1.5530 h1        1 MOL      0.137673
    172 H81        -9.9110    2.4490   -0.4150 hn        1 MOL      0.228424
    173 Ca1         2.7250    0.4490   -0.8010 Ca        1 MOL      1.370737
    174 O23         0.5150    1.4610   -1.9040 oh        1 MOL     -0.788611
    175 H82         0.6480    2.0570   -2.6320 ho        1 MOL      0.400437
    176 H83        -0.4300    1.3760   -1.8300 ho        1 MOL      0.400437
    177 O24         0.9600   -1.7150   -1.3940 oh        1 MOL     -0.788611
    178 H84         1.2330   -1.9690   -2.2730 ho        1 MOL      0.400437
    179 H85         0.0100   -1.6480   -1.4400 ho        1 MOL      0.400437
    180 O25         3.1990    2.3230   -2.7750 oh        1 MOL     -0.788611
    181 H86         3.2440    2.0210   -3.6780 ho        1 MOL      0.400437
    182 H87         2.9190    3.2400   -2.8380 ho        1 MOL      0.400437
@<TRIPOS>BOND
     1    1    2 1   
     2    1    4 1   
     3    1    5 1   
     4    1    6 1   
     5    2    3 2   
     6    2    7 1   
     7    7    8 1   
     8    7   15 1   
     9    8    9 1   
    10    8   11 1   
    11    8   16 1   
    12    9   10 2   
    13    9   19 1   
    14   11   12 1   
    15   11   17 1   
    16   11   18 1   
    17   12   13 1   
    18   12   14 1   
    19   19   20 1   
    20   19   28 1   
    21   20   21 1   
    22   20   23 1   
    23   20   29 1   
    24   21   22 2   
    25   21   41 1   
    26   23   24 1   
    27   23   30 1   
    28   23   31 1   
    29   24   25 1   
    30   24   32 1   
    31   24   33 1   
    32   25   26 1   
    33   25   34 1   
    34   25   35 1   
    35   26   27 1   
    36   26   36 1   
    37   26   37 1   
    38   27   38 1   
    39   27   39 1   
    40   27   40 1   
    41   41   42 1   
    42   41   49 1   
    43   42   43 1   
    44   42   45 1   
    45   42   50 1   
    46   43   44 2   
    47   43   53 1   
    48   45   46 1   
    49   45   51 1   
    50   45   52 1   
    51   46   47 1   
    52   46   48 1   
    53   53   54 1   
    54   53   57 1   
    55   54   55 1   
    56   54   58 1   
    57   54   59 1   
    58   55   56 2   
    59   55   60 1   
    60   60   61 1   
    61   60   68 1   
    62   61   62 1   
    63   61   64 1   
    64   61   69 1   
    65   62   63 2   
    66   62   74 1   
    67   64   65 1   
    68   64   70 1   
    69   64   71 1   
    70   65   66 1   
    71   65   67 2   
    72   66   72 1   
    73   66   73 1   
    74   74   75 1   
    75   74   78 1   
    76   75   76 1   
    77   75   79 1   
    78   75   80 1   
    79   76   77 2   
    80   76   81 1   
    81   81   82 1   
    82   81   93 1   
    83   82   83 1   
    84   82   85 1   
    85   82   94 1   
    86   83   84 2   
    87   83  102 1   
    88   85   86 1   
    89   85   95 1   
    90   85   96 1   
    91   86   87 ar  
    92   86   88 ar  
    93   87   89 ar  
    94   87   97 1   
    95   88   90 ar  
    96   88   98 1   
    97   89   91 ar  
    98   89   99 1   
    99   90   91 ar  
   100   90  100 1   
   101   91   92 1   
   102   92  101 1   
   103  102  103 1   
   104  102  110 1   
   105  103  104 1   
   106  103  106 1   
   107  103  111 1   
   108  104  105 2   
   109  104  121 1   
   110  106  107 1   
   111  106  108 1   
   112  106  112 1   
   113  107  109 1   
   114  107  113 1   
   115  107  114 1   
   116  108  115 1   
   117  108  116 1   
   118  108  117 1   
   119  109  118 1   
   120  109  119 1   
   121  109  120 1   
   122  121  122 1   
   123  121  127 1   
   124  122  123 1   
   125  122  125 1   
   126  122  128 1   
   127  123  124 2   
   128  123  132 1   
   129  125  126 1   
   130  125  129 1   
   131  125  130 1   
   132  126  131 1   
   133  132  133 1   
   134  132  137 1   
   135  133  134 1   
   136  133  136 1   
   137  133  138 1   
   138  134  135 2   
   139  134  142 1   
   140  136  139 1   
   141  136  140 1   
   142  136  141 1   
   143  142  143 1   
   144  142  147 1   
   145  143  144 1   
   146  143  146 1   
   147  143  148 1   
   148  144  145 2   
   149  144  152 1   
   150  146  149 1   
   151  146  150 1   
   152  146  151 1   
   153  152  153 1   
   154  152  161 1   
   155  153  154 1   
   156  153  156 1   
   157  153  162 1   
   158  154  155 2   
   159  154  167 1   
   160  156  157 1   
   161  156  163 1   
   162  156  164 1   
   163  157  158 1   
   164  157  165 1   
   165  157  166 1   
   166  158  159 1   
   167  158  160 1   
   168  167  168 1   
   169  167  172 1   
   170  168  169 1   
   171  168  170 1   
   172  168  171 1   
   173  174  175 1   
   174  174  176 1   
   175  177  178 1   
   176  177  179 1   
   177  180  181 1   
   178  180  182 1   
@<TRIPOS>SUBSTRUCTURE
     1 MOL         1 TEMP              0 ****  ****    0 ROOT
