@<TRIPOS>MOLECULE
MOL
  184   179     1     0     0
SMALL
resp


@<TRIPOS>ATOM
      1 C1         -4.3800   -6.2470   -3.4190 c3        1 MOL     -0.445225
      2 C2         -4.5500   -4.8560   -2.7360 c         1 MOL      0.721699
      3 O1         -4.0450   -3.8700   -3.2790 o         1 MOL     -0.559649
      4 H1         -5.3590   -6.6310   -3.7090 hc        1 MOL      0.105124
      5 H2         -3.7550   -6.1420   -4.3050 hc        1 MOL      0.105124
      6 H3         -3.9110   -6.9400   -2.7220 hc        1 MOL      0.105124
      7 N1         -5.1530   -4.6680   -1.5240 n         1 MOL     -0.490374
      8 C3         -5.9140   -5.5880   -0.7340 c3        1 MOL     -0.072236
      9 C4         -5.7050   -5.2680    0.7620 c         1 MOL      0.521055
     10 O2         -4.5890   -4.9020    1.1070 o         1 MOL     -0.466163
     11 C5         -7.4760   -5.5090   -1.1260 c3        1 MOL     -0.062881
     12 C6         -7.9820   -4.0810   -1.1630 c         1 MOL      0.658456
     13 O3         -8.3540   -3.6120   -0.0780 o         1 MOL     -0.697712
     14 O4         -8.0390   -3.4440   -2.2010 o         1 MOL     -0.697712
     15 H4         -4.9850   -3.7430   -1.1450 hn        1 MOL      0.393305
     16 H5         -5.5880   -6.6230   -0.8830 h1        1 MOL      0.093788
     17 H6         -8.1970   -6.0770   -0.5490 hc        1 MOL     -0.014477
     18 H7         -7.5510   -5.9710   -2.1110 hc        1 MOL     -0.014477
     19 N2         -6.7780   -5.3460    1.5650 n         1 MOL     -0.636913
     20 C7         -6.9330   -4.8780    2.9910 c3        1 MOL      0.509909
     21 C8         -6.5460   -3.3840    3.2270 c         1 MOL      0.304747
     22 O5         -5.9170   -3.0740    4.2000 o         1 MOL     -0.492111
     23 C9         -6.2600   -5.8960    3.8530 c3        1 MOL     -0.282749
     24 H8         -7.6620   -5.6710    1.2010 hn        1 MOL      0.320381
     25 H9         -7.9700   -5.0320    3.2960 h1        1 MOL     -0.020692
     26 H10        -5.1690   -5.9190    3.7580 hc        1 MOL      0.059519
     27 H11        -6.4320   -5.6460    4.8990 hc        1 MOL      0.059519
     28 H12        -6.8470   -6.8220    3.8610 hc        1 MOL      0.059519
     29 N3         -6.9150   -2.4860    2.2930 n         1 MOL     -0.201202
     30 C10        -6.5750   -1.0320    2.2810 c3        1 MOL      0.024380
     31 C11        -7.7950   -0.1430    2.1280 c         1 MOL      0.367108
     32 O6         -8.6320   -0.4710    1.3040 o         1 MOL     -0.526675
     33 C12        -5.5360   -0.6730    1.2220 c3        1 MOL      0.052888
     34 C13        -5.8120   -1.2180   -0.1550 c         1 MOL      0.753365
     35 O7         -6.7800   -0.7760   -0.8080 o         1 MOL     -0.730720
     36 O8         -5.0230   -2.0120   -0.7040 o         1 MOL     -0.730720
     37 H13        -7.3320   -2.7640    1.4130 hn        1 MOL      0.030868
     38 H14        -6.0870   -0.8000    3.2270 h1        1 MOL      0.044115
     39 H15        -4.5130   -0.9920    1.4340 hc        1 MOL      0.019473
     40 H16        -5.3730    0.4040    1.2350 hc        1 MOL      0.019473
     41 N4         -7.8840    0.9940    2.8400 n         1 MOL     -0.324194
     42 C14        -8.8960    2.0840    2.5610 c3        1 MOL     -0.175962
     43 C15        -8.3770    3.2360    1.6970 c         1 MOL      0.747052
     44 O9         -9.1570    3.9470    1.0760 o         1 MOL     -0.620207
     45 H17        -7.2230    1.2190    3.5680 hn        1 MOL      0.277003
     46 H18        -9.1460    2.5720    3.5030 h1        1 MOL      0.099361
     47 H19        -9.8210    1.6880    2.1470 h1        1 MOL      0.099361
     48 N5         -7.0700    3.3920    1.6350 n         1 MOL     -0.567207
     49 C16        -6.3310    4.5540    1.0640 c3        1 MOL      0.120076
     50 C17        -4.9510    3.9870    0.5290 c         1 MOL      0.570593
     51 O10        -4.5370    2.8320    0.8710 o         1 MOL     -0.438054
     52 C18        -6.1390    5.6090    2.1120 c3        1 MOL     -0.471040
     53 C19        -7.3330    6.2100    2.6440 c         1 MOL      0.790242
     54 N6         -7.9790    7.1440    1.9800 n         1 MOL     -0.818892
     55 O11        -7.8020    5.8900    3.7460 o         1 MOL     -0.590493
     56 H20        -6.4620    2.6820    2.0090 hn        1 MOL      0.308157
     57 H21        -6.7460    5.0440    0.1870 h1        1 MOL      0.033645
     58 H22        -5.5050    6.4190    1.7410 hc        1 MOL      0.149119
     59 H23        -5.6790    4.9760    2.8660 hc        1 MOL      0.149119
     60 H24        -7.7050    7.1340    1.0070 hn        1 MOL      0.371558
     61 H25        -8.8640    7.4860    2.3160 hn        1 MOL      0.371558
     62 N7         -4.2380    4.7400   -0.2720 n         1 MOL     -0.574387
     63 C20        -2.8540    4.4960   -0.8130 c3        1 MOL      0.110833
     64 C21        -1.7210    5.0880    0.1000 c         1 MOL      0.635633
     65 O12        -2.0210    5.6280    1.1850 o         1 MOL     -0.558124
     66 H26        -4.7150    5.5100   -0.7070 hn        1 MOL      0.316210
     67 H27        -2.7540    5.0330   -1.7620 h1        1 MOL      0.022100
     68 H28        -2.7020    3.4390   -1.0290 h1        1 MOL      0.022100
     69 N8         -0.4870    5.0490   -0.3400 n         1 MOL     -0.666489
     70 C22         0.1180    4.3150   -1.5550 c3        1 MOL      0.274760
     71 C23         1.3270    3.4010   -1.1110 c         1 MOL      0.574383
     72 O13         1.6330    3.2510    0.0550 o         1 MOL     -0.496703
     73 C24         0.5430    5.2870   -2.6510 c3        1 MOL      0.196146
     74 C25        -0.3030    6.5400   -2.8830 c3        1 MOL     -0.301181
     75 O14         1.7560    5.8720   -2.4030 oh        1 MOL     -0.555922
     76 H29         0.1250    5.6730    0.1800 hn        1 MOL      0.382737
     77 H30        -0.6130    3.6320   -1.9930 h1        1 MOL     -0.028909
     78 H31         0.6600    4.7930   -3.6130 h1        1 MOL      0.023076
     79 H32         2.1770    6.0760   -3.2360 ho        1 MOL      0.411598
     80 H33        -0.3250    7.1950   -2.0120 hc        1 MOL      0.071426
     81 H34         0.1100    7.1410   -3.6860 hc        1 MOL      0.071426
     82 H35        -1.3460    6.2560   -3.0610 hc        1 MOL      0.071426
     83 N9          1.8400    2.6050   -2.0680 n         1 MOL     -0.511021
     84 C26         2.9400    1.6660   -1.9540 c3        1 MOL      0.209381
     85 C27         4.1380    2.2730   -2.6370 c         1 MOL      0.403623
     86 O15         4.0910    2.4760   -3.8270 o         1 MOL     -0.580824
     87 C28         2.5410    0.2800   -2.5460 c3        1 MOL      0.145522
     88 C29         1.5620   -0.5460   -1.6750 c3        1 MOL     -0.247214
     89 C30         3.7380   -0.6330   -2.7400 c3        1 MOL     -0.181630
     90 C31         0.1920    0.1040   -1.4800 c3        1 MOL     -0.195919
     91 H36         1.4650    2.7780   -2.9950 hn        1 MOL      0.208876
     92 H37         3.0100    1.5810   -0.8690 h1        1 MOL      0.082765
     93 H38         2.1390    0.4190   -3.5550 hc        1 MOL     -0.004025
     94 H39         1.9820   -0.6690   -0.6710 hc        1 MOL      0.098307
     95 H40         1.4640   -1.5610   -2.0810 hc        1 MOL      0.098307
     96 H41         4.2030   -0.7980   -1.7740 hc        1 MOL      0.037241
     97 H42         3.2820   -1.5820   -3.0280 hc        1 MOL      0.037241
     98 H43         4.4420   -0.2500   -3.4730 hc        1 MOL      0.037241
     99 H44        -0.3650   -0.4750   -0.7430 hc        1 MOL      0.068558
    100 H45         0.2550    1.1140   -1.0880 hc        1 MOL      0.068558
    101 H46        -0.3180    0.1860   -2.4370 hc        1 MOL      0.068558
    102 N10         5.3070    2.5030   -1.9810 n         1 MOL     -0.358119
    103 C32         5.6910    2.1250   -0.5760 c3        1 MOL      0.066154
    104 C33         7.1930    1.6770   -0.6020 c         1 MOL      0.565535
    105 O16         7.7270    1.6050   -1.7600 o         1 MOL     -0.587350
    106 C34         5.3850    3.2880    0.4380 c3        1 MOL     -0.140415
    107 C35         5.8740    4.7010   -0.0490 c         1 MOL      0.687284
    108 O17         5.3860    5.6700    0.5390 o         1 MOL     -0.717884
    109 O18         6.6280    4.7820   -1.0350 o         1 MOL     -0.717884
    110 H47         5.9450    3.0760   -2.5200 hn        1 MOL      0.315974
    111 H48         5.1580    1.2040   -0.3270 h1        1 MOL      0.026427
    112 H49         5.7410    3.0890    1.4510 hc        1 MOL      0.018161
    113 H50         4.3030    3.2330    0.4750 hc        1 MOL      0.018161
    114 N11         7.7740    1.2250    0.5090 n         1 MOL     -0.613130
    115 C36         9.1140    0.6630    0.5810 c3        1 MOL      0.404684
    116 C37         9.4030   -0.0240    2.0010 c         1 MOL      0.207593
    117 O19         9.0640    0.5870    2.9970 o         1 MOL     -0.466238
    118 C38        10.1530    1.7900    0.3070 c3        1 MOL     -0.222322
    119 C39        11.5640    1.2960    0.0900 ca        1 MOL      0.094489
    120 C40        12.5140    1.4890    1.0750 ca        1 MOL     -0.141651
    121 C41        11.9550    0.6970   -1.0860 ca        1 MOL     -0.141651
    122 C42        13.8930    1.1520    0.8610 ca        1 MOL     -0.167519
    123 C43        13.2760    0.2990   -1.3170 ca        1 MOL     -0.167519
    124 C44        14.2700    0.4910   -0.3090 ca        1 MOL     -0.067270
    125 H51         7.1530    1.0420    1.2840 hn        1 MOL      0.359805
    126 H52         9.1180   -0.0680   -0.2260 h1        1 MOL     -0.012193
    127 H53        10.1840    2.5590    1.0840 hc        1 MOL      0.097063
    128 H54         9.8560    2.2090   -0.6620 hc        1 MOL      0.097063
    129 H55        12.1490    1.8310    2.0380 ha        1 MOL      0.118834
    130 H56        11.1880    0.4210   -1.7910 ha        1 MOL      0.118834
    131 H57        14.5470    1.3510    1.7070 ha        1 MOL      0.105657
    132 H58        13.5610   -0.2150   -2.2110 ha        1 MOL      0.105657
    133 H59        15.3080    0.2140   -0.4560 ha        1 MOL      0.073298
    134 N12        10.2360   -1.0850    2.1120 n         1 MOL      0.085464
    135 C45        10.7090   -1.9130    1.0010 c3        1 MOL      0.129204
    136 C46         9.6780   -2.7590    0.1270 c         1 MOL      0.358450
    137 O20        10.0370   -2.9640   -1.0510 o         1 MOL     -0.566537
    138 C47        11.7880   -2.8590    1.5230 c3        1 MOL     -0.060939
    139 C48        12.1730   -2.2310    2.8740 c3        1 MOL      0.049291
    140 C49        10.9660   -1.4450    3.3150 c3        1 MOL     -0.192011
    141 H60        11.2220   -1.3580    0.2140 h1        1 MOL      0.064675
    142 H61        11.3720   -3.8560    1.6580 hc        1 MOL      0.020812
    143 H62        12.5810   -2.8890    0.7710 hc        1 MOL      0.020812
    144 H63        12.4370   -3.0440    3.5650 hc        1 MOL     -0.018577
    145 H64        13.0110   -1.5690    2.6560 hc        1 MOL     -0.018577
    146 H65        10.3340   -2.1130    3.9150 h1        1 MOL      0.078464
    147 H66        11.2760   -0.5600    3.8780 h1        1 MOL      0.078464
    148 N13         8.4730   -3.0730    0.5900 n         1 MOL     -0.264351
    149 C50         7.4420   -3.9400   -0.0720 c3        1 MOL      0.065514
    150 C51         7.9780   -5.4460   -0.0820 c         1 MOL      0.444862
    151 O21         7.8850   -6.2030    0.8470 o         1 MOL     -0.576087
    152 C52         6.1630   -3.8630    0.7750 c3        1 MOL     -0.195844
    153 C53         5.4600   -2.5350    0.6210 c3        1 MOL     -0.070660
    154 C54         5.5350   -1.6810    1.9040 c         1 MOL      0.681399
    155 O22         6.5870   -1.0690    2.1800 o         1 MOL     -0.661127
    156 O23         4.4750   -1.5070    2.6220 o         1 MOL     -0.661127
    157 H67         8.2270   -2.7000    1.4960 hn        1 MOL      0.192023
    158 H68         7.1960   -3.5290   -1.0500 h1        1 MOL      0.132439
    159 H69         6.3690   -3.8790    1.8430 hc        1 MOL      0.076416
    160 H70         5.5690   -4.7250    0.4580 hc        1 MOL      0.076416
    161 H71         4.4500   -2.6930    0.2480 hc        1 MOL     -0.005674
    162 H72         5.9230   -1.9940   -0.2030 hc        1 MOL     -0.005674
    163 N14         8.3640   -5.9320   -1.2110 n         1 MOL     -0.281420
    164 C55         8.6020   -5.3440   -2.5000 c3        1 MOL     -0.121647
    165 H73         9.5700   -4.8450   -2.4980 h1        1 MOL      0.064367
    166 H74         8.5960   -6.1230   -3.2630 h1        1 MOL      0.064367
    167 H75         7.8200   -4.6170   -2.7190 h1        1 MOL      0.064367
    168 H76         8.5500   -6.9260   -1.2050 hn        1 MOL      0.248197
    169 Ca1        -9.3780   -1.1660   -1.3180 Ca        1 MOL      1.749815
    170 O24        -9.2320   -0.9430   -3.9420 oh        1 MOL     -0.846339
    171 H77        -9.5570   -0.3090   -4.5740 ho        1 MOL      0.411387
    172 H78        -8.9590   -1.7030   -4.4720 ho        1 MOL      0.411387
    173 O25       -11.0490   -0.1860    0.5190 oh        1 MOL     -0.846339
    174 H79       -11.8910   -0.0100    0.9530 ho        1 MOL      0.411387
    175 H80       -10.4080   -0.1110    1.2110 ho        1 MOL      0.411387
    176 O26       -11.7430   -0.2890   -2.4560 oh        1 MOL     -0.846339
    177 H81       -12.0570    0.2240   -3.1980 ho        1 MOL      0.411387
    178 H82       -12.5390   -0.5800   -2.0150 ho        1 MOL      0.411387
    179 O27       -11.0300   -3.1820   -1.8730 oh        1 MOL     -0.846339
    180 H83       -11.5160   -3.9430   -1.5430 ho        1 MOL      0.411387
    181 H84       -10.6300   -3.4760   -2.6890 ho        1 MOL      0.411387
    182 O28        -9.1680    1.3950   -1.6460 oh        1 MOL     -0.846339
    183 H85        -8.6400    1.6680   -2.4050 ho        1 MOL      0.411387
    184 H86        -9.9410    1.9650   -1.6830 ho        1 MOL      0.411387
@<TRIPOS>BOND
     1    1    2 1   
     2    1    4 1   
     3    1    5 1   
     4    1    6 1   
     5    2    3 2   
     6    2    7 1   
     7    7    8 1   
     8    7   15 1   
     9    8    9 1   
    10    8   11 1   
    11    8   16 1   
    12    9   10 2   
    13    9   19 1   
    14   11   12 1   
    15   11   17 1   
    16   11   18 1   
    17   12   13 1   
    18   12   14 1   
    19   19   20 1   
    20   19   24 1   
    21   20   21 1   
    22   20   23 1   
    23   20   25 1   
    24   21   22 2   
    25   21   29 1   
    26   23   26 1   
    27   23   27 1   
    28   23   28 1   
    29   29   30 1   
    30   29   37 1   
    31   30   31 1   
    32   30   33 1   
    33   30   38 1   
    34   31   32 2   
    35   31   41 1   
    36   33   34 1   
    37   33   39 1   
    38   33   40 1   
    39   34   35 1   
    40   34   36 1   
    41   41   42 1   
    42   41   45 1   
    43   42   43 1   
    44   42   46 1   
    45   42   47 1   
    46   43   44 2   
    47   43   48 1   
    48   48   49 1   
    49   48   56 1   
    50   49   50 1   
    51   49   52 1   
    52   49   57 1   
    53   50   51 2   
    54   50   62 1   
    55   52   53 1   
    56   52   58 1   
    57   52   59 1   
    58   53   54 1   
    59   53   55 2   
    60   54   60 1   
    61   54   61 1   
    62   62   63 1   
    63   62   66 1   
    64   63   64 1   
    65   63   67 1   
    66   63   68 1   
    67   64   65 2   
    68   64   69 1   
    69   69   70 1   
    70   69   76 1   
    71   70   71 1   
    72   70   73 1   
    73   70   77 1   
    74   71   72 2   
    75   71   83 1   
    76   73   74 1   
    77   73   75 1   
    78   73   78 1   
    79   74   80 1   
    80   74   81 1   
    81   74   82 1   
    82   75   79 1   
    83   83   84 1   
    84   83   91 1   
    85   84   85 1   
    86   84   87 1   
    87   84   92 1   
    88   85   86 2   
    89   85  102 1   
    90   87   88 1   
    91   87   89 1   
    92   87   93 1   
    93   88   90 1   
    94   88   94 1   
    95   88   95 1   
    96   89   96 1   
    97   89   97 1   
    98   89   98 1   
    99   90   99 1   
   100   90  100 1   
   101   90  101 1   
   102  102  103 1   
   103  102  110 1   
   104  103  104 1   
   105  103  106 1   
   106  103  111 1   
   107  104  105 2   
   108  104  114 1   
   109  106  107 1   
   110  106  112 1   
   111  106  113 1   
   112  107  108 1   
   113  107  109 1   
   114  114  115 1   
   115  114  125 1   
   116  115  116 1   
   117  115  118 1   
   118  115  126 1   
   119  116  117 2   
   120  116  134 1   
   121  118  119 1   
   122  118  127 1   
   123  118  128 1   
   124  119  120 ar  
   125  119  121 ar  
   126  120  122 ar  
   127  120  129 1   
   128  121  123 ar  
   129  121  130 1   
   130  122  124 ar  
   131  122  131 1   
   132  123  124 ar  
   133  123  132 1   
   134  124  133 1   
   135  134  135 1   
   136  134  140 1   
   137  135  136 1   
   138  135  138 1   
   139  135  141 1   
   140  136  137 2   
   141  136  148 1   
   142  138  139 1   
   143  138  142 1   
   144  138  143 1   
   145  139  140 1   
   146  139  144 1   
   147  139  145 1   
   148  140  146 1   
   149  140  147 1   
   150  148  149 1   
   151  148  157 1   
   152  149  150 1   
   153  149  152 1   
   154  149  158 1   
   155  150  151 2   
   156  150  163 1   
   157  152  153 1   
   158  152  159 1   
   159  152  160 1   
   160  153  154 1   
   161  153  161 1   
   162  153  162 1   
   163  154  155 1   
   164  154  156 1   
   165  163  164 1   
   166  163  168 1   
   167  164  165 1   
   168  164  166 1   
   169  164  167 1   
   170  170  171 1   
   171  170  172 1   
   172  173  174 1   
   173  173  175 1   
   174  176  177 1   
   175  176  178 1   
   176  179  180 1   
   177  179  181 1   
   178  182  183 1   
   179  182  184 1   
@<TRIPOS>SUBSTRUCTURE
     1 MOL         1 TEMP              0 ****  ****    0 ROOT
