@<TRIPOS>MOLECULE
MOL
  178   175     1     0     0
SMALL
resp


@<TRIPOS>ATOM
      1 C1         11.2620   -6.6420    0.0090 c3        1 MOL     -0.314997
      2 C2         10.3090   -5.5650   -0.6220 c         1 MOL      0.670699
      3 O1          9.2710   -5.9740   -1.1780 o         1 MOL     -0.583777
      4 H1         12.1270   -6.1480    0.4490 hc        1 MOL      0.078153
      5 H2         10.7270   -7.1940    0.7810 hc        1 MOL      0.078153
      6 H3         11.5940   -7.3320   -0.7670 hc        1 MOL      0.078153
      7 N1         10.5020   -4.2240   -0.6340 n         1 MOL     -0.611743
      8 C3         11.6620   -3.4930   -0.1080 c3        1 MOL      0.040837
      9 C4         12.1740   -2.2820   -0.9970 c         1 MOL      0.310925
     10 O2         13.2370   -1.7400   -0.6740 o         1 MOL     -0.524006
     11 C5         11.4050   -3.0340    1.2950 c3        1 MOL      0.085429
     12 C6         10.0230   -2.3140    1.4150 c         1 MOL      0.655707
     13 O3          9.8750   -1.2060    0.8020 o         1 MOL     -0.731784
     14 O4          9.1180   -2.8130    2.0950 o         1 MOL     -0.731784
     15 H4          9.7160   -3.6720   -0.9580 hn        1 MOL      0.508518
     16 H5         12.4600   -4.2200    0.0600 h1        1 MOL      0.066595
     17 H6         12.2680   -2.5170    1.7240 hc        1 MOL     -0.018037
     18 H7         11.4240   -3.8920    1.9510 hc        1 MOL     -0.018037
     19 N2         11.4050   -1.9870   -2.0340 n         1 MOL     -0.203247
     20 C7         11.6360   -0.8790   -2.8800 c3        1 MOL      0.417351
     21 C8         10.3840   -0.0330   -3.0540 c         1 MOL      0.249212
     22 O5         10.3850    0.9640   -3.7340 o         1 MOL     -0.563507
     23 C9         11.9820   -1.3730   -4.2960 c3        1 MOL     -0.267941
     24 H8         10.5870   -2.5610   -2.1680 hn        1 MOL      0.086418
     25 H9         12.5180   -0.3350   -2.5500 h1        1 MOL      0.010376
     26 H10        11.1760   -1.8860   -4.8120 hc        1 MOL      0.056333
     27 H11        12.2990   -0.4940   -4.8580 hc        1 MOL      0.056333
     28 H12        12.8340   -2.0470   -4.2750 hc        1 MOL      0.056333
     29 N3          9.3170   -0.3100   -2.3120 n         1 MOL      0.098817
     30 C10         7.9560    0.1910   -2.5150 c3        1 MOL      0.039200
     31 C11         7.6200    1.1020   -1.3010 c         1 MOL      0.480200
     32 O6          8.2870    1.0930   -0.2790 o         1 MOL     -0.484894
     33 C12         7.0730   -1.0350   -2.4460 c3        1 MOL     -0.419490
     34 C13         7.2390   -1.8480   -1.1580 c         1 MOL      0.872477
     35 O7          7.9610   -2.8750   -1.1670 o         1 MOL     -0.722380
     36 O8          6.7240   -1.4210   -0.0940 o         1 MOL     -0.722380
     37 H13         9.4830   -0.9650   -1.5700 hn        1 MOL     -0.094592
     38 H14         7.8290    0.7800   -3.4230 h1        1 MOL      0.073092
     39 H15         7.4870   -1.6500   -3.2410 hc        1 MOL      0.100236
     40 H16         6.0270   -0.9470   -2.7550 hc        1 MOL      0.100236
     41 N4          6.5360    1.8460   -1.5210 n         1 MOL     -0.532240
     42 C14         5.9870    2.8420   -0.6250 c3        1 MOL      0.158364
     43 C15         5.4290    2.1750    0.6670 c         1 MOL      0.506064
     44 O9          5.6430    0.9970    1.0150 o         1 MOL     -0.528389
     45 H17         5.9530    1.6730   -2.3310 hn        1 MOL      0.336825
     46 H18         5.2940    3.4740   -1.1840 h1        1 MOL      0.028827
     47 H19         6.7640    3.5040   -0.2650 h1        1 MOL      0.028827
     48 N5          4.7090    2.9400    1.5060 n         1 MOL     -0.552941
     49 C16         3.8510    2.3980    2.6020 c3        1 MOL     -0.017839
     50 C17         2.3690    2.8480    2.5020 c         1 MOL      0.339858
     51 O10         1.6460    2.7970    3.5340 o         1 MOL     -0.491833
     52 C18         4.5160    2.7680    3.9540 c3        1 MOL     -0.020343
     53 C19         6.0000    2.4180    4.1220 c         1 MOL      0.595477
     54 N6          6.7560    3.3160    4.6740 n         1 MOL     -0.676298
     55 O11         6.4710    1.3970    3.7030 o         1 MOL     -0.608415
     56 H20         4.6740    3.9300    1.3060 hn        1 MOL      0.269484
     57 H21         3.8490    1.3140    2.5610 h1        1 MOL      0.191126
     58 H22         3.9300    2.4230    4.8040 hc        1 MOL      0.046578
     59 H23         4.5110    3.8440    4.0950 hc        1 MOL      0.046578
     60 H24         6.5040    4.2320    5.0320 hn        1 MOL      0.296416
     61 H25         7.7430    3.1130    4.6110 hn        1 MOL      0.296416
     62 N7          1.9190    3.2400    1.3150 n         1 MOL     -0.076085
     63 C20         0.6040    3.6240    0.9380 c3        1 MOL     -0.285903
     64 C21         0.5160    3.7250   -0.6260 c         1 MOL      0.656003
     65 O12         1.3880    3.2040   -1.3010 o         1 MOL     -0.588049
     66 H26         2.6050    3.1900    0.5640 hn        1 MOL      0.170720
     67 H27         0.5270    4.6500    1.3150 h1        1 MOL      0.162956
     68 H28        -0.1230    2.9380    1.3650 h1        1 MOL      0.162956
     69 N8         -0.3010    4.5020   -1.2990 n         1 MOL     -0.406256
     70 C22        -1.3120    5.4290   -0.7360 c3        1 MOL     -0.252216
     71 C23        -2.7370    4.7290   -0.6500 c         1 MOL      0.645602
     72 O13        -3.5660    5.3070    0.0260 o         1 MOL     -0.559982
     73 C24        -1.3570    6.7580   -1.4780 c3        1 MOL      0.426565
     74 C25         0.0480    7.3790   -1.6230 c3        1 MOL     -0.407660
     75 O14        -1.9180    6.5640   -2.7270 oh        1 MOL     -0.611339
     76 H29        -0.2180    4.3340   -2.2910 hn        1 MOL      0.302405
     77 H30        -0.9230    5.7480    0.2370 h1        1 MOL      0.101805
     78 H31        -2.0170    7.4530   -0.9530 h1        1 MOL      0.035549
     79 H32        -1.2920    6.7500   -3.4280 ho        1 MOL      0.398255
     80 H33         0.0230    8.4370   -1.9040 hc        1 MOL      0.090189
     81 H34         0.5400    7.4110   -0.6450 hc        1 MOL      0.090189
     82 H35         0.6200    6.7270   -2.2760 hc        1 MOL      0.090189
     83 N9         -2.9240    3.6020   -1.3450 n         1 MOL     -0.415529
     84 C26        -4.1970    2.8190   -1.3560 c3        1 MOL      0.055665
     85 C27        -3.9820    1.4620   -0.4910 c         1 MOL      0.294230
     86 O15        -2.8750    0.9310   -0.5360 o         1 MOL     -0.525442
     87 C28        -4.6540    2.5530   -2.8470 c3        1 MOL      0.175340
     88 C29        -4.8350    3.9300   -3.6200 c3        1 MOL      0.119500
     89 C30        -5.9770    1.8320   -2.9330 c3        1 MOL     -0.160825
     90 C31        -4.9530    3.9130   -5.1420 c3        1 MOL     -0.324139
     91 H36        -2.1520    3.1620   -1.8280 hn        1 MOL      0.244783
     92 H37        -4.9190    3.4570   -0.8440 h1        1 MOL      0.055380
     93 H38        -3.8570    2.0010   -3.3450 hc        1 MOL      0.048611
     94 H39        -3.9660    4.5720   -3.4230 hc        1 MOL     -0.044080
     95 H40        -5.6710    4.4530   -3.1630 hc        1 MOL     -0.044080
     96 H41        -6.7330    2.5480   -2.5970 hc        1 MOL      0.026851
     97 H42        -6.0970    1.3360   -3.8910 hc        1 MOL      0.026851
     98 H43        -5.9290    0.9720   -2.2640 hc        1 MOL      0.026851
     99 H44        -4.0970    3.3400   -5.5060 hc        1 MOL      0.070620
    100 H45        -5.8050    3.3260   -5.5090 hc        1 MOL      0.070620
    101 H46        -4.9240    4.9350   -5.5090 hc        1 MOL      0.070620
    102 N10        -4.9170    0.9380    0.3080 n         1 MOL     -0.082714
    103 C32        -6.2510    1.5500    0.6450 c3        1 MOL      0.036614
    104 C33        -7.2960    0.4360    0.8200 c         1 MOL      0.347345
    105 O16        -6.9190   -0.6610    1.2090 o         1 MOL     -0.451724
    106 C34        -6.0550    2.5350    1.7760 c3        1 MOL     -0.142232
    107 C35        -5.3300    1.9750    2.9270 c         1 MOL      0.652938
    108 O17        -4.0950    2.1320    3.0630 o         1 MOL     -0.690818
    109 O18        -5.9310    1.2500    3.7860 o         1 MOL     -0.690818
    110 H47        -4.6640    0.1120    0.8300 hn        1 MOL      0.249388
    111 H48        -6.6150    2.2370   -0.1120 h1        1 MOL      0.071057
    112 H49        -7.0860    2.7560    2.0460 hc        1 MOL     -0.001277
    113 H50        -5.6770    3.4850    1.3960 hc        1 MOL     -0.001277
    114 N11        -8.5580    0.6690    0.5510 n         1 MOL     -0.361981
    115 C36        -9.6430   -0.2710    0.7290 c3        1 MOL      0.523580
    116 C37       -10.0430   -0.7690   -0.6410 c         1 MOL      0.050043
    117 O19       -10.0630    0.0630   -1.5880 o         1 MOL     -0.487787
    118 C38       -10.7740    0.5750    1.3650 c3        1 MOL     -0.361414
    119 C39       -12.0750   -0.2070    1.7330 ca        1 MOL      0.167382
    120 C40       -13.0400   -0.3000    0.7330 ca        1 MOL     -0.153060
    121 C41       -12.2710   -0.7270    2.9970 ca        1 MOL     -0.153060
    122 C42       -14.2390   -0.9700    1.0350 ca        1 MOL     -0.160718
    123 C43       -13.4000   -1.4420    3.2850 ca        1 MOL     -0.160718
    124 C44       -14.3610   -1.6050    2.2970 ca        1 MOL     -0.072714
    125 H51        -8.7690    1.6070    0.2400 hn        1 MOL      0.247533
    126 H52        -9.3110   -1.0270    1.4560 h1        1 MOL      0.007455
    127 H53       -11.0150    1.3860    0.6740 hc        1 MOL      0.084018
    128 H54       -10.3170    0.9480    2.2810 hc        1 MOL      0.084018
    129 H55       -12.7150    0.0690   -0.2270 ha        1 MOL      0.132257
    130 H56       -11.4210   -0.6650    3.6490 ha        1 MOL      0.132257
    131 H57       -14.8860   -1.1000    0.1790 ha        1 MOL      0.118778
    132 H58       -13.4400   -1.8990    4.2580 ha        1 MOL      0.118778
    133 H59       -15.2720   -2.1560    2.4760 ha        1 MOL      0.077992
    134 N12       -10.3250   -2.0490   -0.8670 n         1 MOL      0.073900
    135 C45       -10.3750   -3.0740    0.1900 c3        1 MOL      0.134228
    136 C46        -8.9280   -3.4780    0.5270 c         1 MOL      0.365363
    137 O20        -8.5170   -3.5160    1.7220 o         1 MOL     -0.559257
    138 C47       -11.0830   -4.3460   -0.3780 c3        1 MOL     -0.193640
    139 C48       -11.1550   -4.0850   -1.8950 c3        1 MOL      0.044590
    140 C49       -10.9990   -2.5660   -2.0860 c3        1 MOL     -0.190016
    141 H60       -10.9340   -2.7490    1.0730 h1        1 MOL      0.011097
    142 H61       -10.5350   -5.2560   -0.1130 hc        1 MOL      0.064090
    143 H62       -12.0990   -4.3640    0.0200 hc        1 MOL      0.064090
    144 H63       -10.2760   -4.5510   -2.3400 hc        1 MOL      0.006806
    145 H64       -12.0960   -4.4180   -2.3460 hc        1 MOL      0.006806
    146 H65       -10.3710   -2.4150   -2.9670 h1        1 MOL      0.096945
    147 H66       -11.9900   -2.1360   -2.1900 h1        1 MOL      0.096945
    148 N13        -8.0840   -3.7240   -0.4880 n         1 MOL     -0.307398
    149 C50        -6.6560   -3.8900   -0.3690 c3        1 MOL      0.402940
    150 C51        -6.4210   -5.4210   -0.0490 c         1 MOL      0.230585
    151 O21        -6.7430   -6.3120   -0.9010 o         1 MOL     -0.553602
    152 C52        -6.0250   -3.4190   -1.7200 c3        1 MOL     -0.050666
    153 C53        -6.0760   -1.9360   -1.8450 c3        1 MOL     -0.132553
    154 C54        -5.7650   -1.5570   -3.2870 c         1 MOL      0.849118
    155 O22        -6.5800   -1.8570   -4.1800 o         1 MOL     -0.748677
    156 O23        -4.7990   -0.9530   -3.6240 o         1 MOL     -0.748677
    157 H67        -8.4430   -3.6730   -1.4280 hn        1 MOL      0.281136
    158 H68        -6.1880   -3.2210    0.3590 h1        1 MOL     -0.002614
    159 H69        -6.6240   -3.9500   -2.4610 hc        1 MOL     -0.013717
    160 H70        -5.0020   -3.7830   -1.7160 hc        1 MOL     -0.013717
    161 H71        -5.2950   -1.5190   -1.2070 hc        1 MOL     -0.004940
    162 H72        -7.0980   -1.6270   -1.6370 hc        1 MOL     -0.004940
    163 N14        -6.0040   -5.8300    1.1660 n         1 MOL     -0.208226
    164 C55        -5.5360   -5.1010    2.3530 c3        1 MOL     -0.223673
    165 H73        -4.5020   -4.7890    2.2040 h1        1 MOL      0.102495
    166 H74        -6.1610   -4.2210    2.5110 h1        1 MOL      0.102495
    167 H75        -5.5960   -5.7500    3.2260 h1        1 MOL      0.102495
    168 H76        -5.9720   -6.8320    1.2660 hn        1 MOL      0.237355
    169 Ca1         7.6850   -0.2810    1.9610 Ca        1 MOL      1.755951
    170 O24         5.5770   -1.5000    2.9640 oh        1 MOL     -0.825452
    171 H77         5.0330   -1.5590    3.7490 ho        1 MOL      0.397778
    172 H78         4.9580   -1.5180    2.2280 ho        1 MOL      0.397778
    173 O25         9.0610    2.0850    2.2680 oh        1 MOL     -0.825452
    174 H79         8.8760    2.8770    1.7510 ho        1 MOL      0.397778
    175 H80         9.1960    2.4080    3.1510 ho        1 MOL      0.397778
    176 O26         9.8200   -0.4750    4.1480 oh        1 MOL     -0.825452
    177 H81        10.4260   -1.1900    4.3320 ho        1 MOL      0.397778
    178 H82         9.4910   -0.2140    5.0100 ho        1 MOL      0.397778
@<TRIPOS>BOND
     1    1    2 1   
     2    1    4 1   
     3    1    5 1   
     4    1    6 1   
     5    2    3 2   
     6    2    7 1   
     7    7    8 1   
     8    7   15 1   
     9    8    9 1   
    10    8   11 1   
    11    8   16 1   
    12    9   10 2   
    13    9   19 1   
    14   11   12 1   
    15   11   17 1   
    16   11   18 1   
    17   12   13 1   
    18   12   14 1   
    19   19   20 1   
    20   19   24 1   
    21   20   21 1   
    22   20   23 1   
    23   20   25 1   
    24   21   22 2   
    25   21   29 1   
    26   23   26 1   
    27   23   27 1   
    28   23   28 1   
    29   29   30 1   
    30   29   37 1   
    31   30   31 1   
    32   30   33 1   
    33   30   38 1   
    34   31   32 2   
    35   31   41 1   
    36   33   34 1   
    37   33   39 1   
    38   33   40 1   
    39   34   35 1   
    40   34   36 1   
    41   41   42 1   
    42   41   45 1   
    43   42   43 1   
    44   42   46 1   
    45   42   47 1   
    46   43   44 2   
    47   43   48 1   
    48   48   49 1   
    49   48   56 1   
    50   49   50 1   
    51   49   52 1   
    52   49   57 1   
    53   50   51 2   
    54   50   62 1   
    55   52   53 1   
    56   52   58 1   
    57   52   59 1   
    58   53   54 1   
    59   53   55 2   
    60   54   60 1   
    61   54   61 1   
    62   62   63 1   
    63   62   66 1   
    64   63   64 1   
    65   63   67 1   
    66   63   68 1   
    67   64   65 2   
    68   64   69 1   
    69   69   70 1   
    70   69   76 1   
    71   70   71 1   
    72   70   73 1   
    73   70   77 1   
    74   71   72 2   
    75   71   83 1   
    76   73   74 1   
    77   73   75 1   
    78   73   78 1   
    79   74   80 1   
    80   74   81 1   
    81   74   82 1   
    82   75   79 1   
    83   83   84 1   
    84   83   91 1   
    85   84   85 1   
    86   84   87 1   
    87   84   92 1   
    88   85   86 2   
    89   85  102 1   
    90   87   88 1   
    91   87   89 1   
    92   87   93 1   
    93   88   90 1   
    94   88   94 1   
    95   88   95 1   
    96   89   96 1   
    97   89   97 1   
    98   89   98 1   
    99   90   99 1   
   100   90  100 1   
   101   90  101 1   
   102  102  103 1   
   103  102  110 1   
   104  103  104 1   
   105  103  106 1   
   106  103  111 1   
   107  104  105 2   
   108  104  114 1   
   109  106  107 1   
   110  106  112 1   
   111  106  113 1   
   112  107  108 1   
   113  107  109 1   
   114  114  115 1   
   115  114  125 1   
   116  115  116 1   
   117  115  118 1   
   118  115  126 1   
   119  116  117 2   
   120  116  134 1   
   121  118  119 1   
   122  118  127 1   
   123  118  128 1   
   124  119  120 ar  
   125  119  121 ar  
   126  120  122 ar  
   127  120  129 1   
   128  121  123 ar  
   129  121  130 1   
   130  122  124 ar  
   131  122  131 1   
   132  123  124 ar  
   133  123  132 1   
   134  124  133 1   
   135  134  135 1   
   136  134  140 1   
   137  135  136 1   
   138  135  138 1   
   139  135  141 1   
   140  136  137 2   
   141  136  148 1   
   142  138  139 1   
   143  138  142 1   
   144  138  143 1   
   145  139  140 1   
   146  139  144 1   
   147  139  145 1   
   148  140  146 1   
   149  140  147 1   
   150  148  149 1   
   151  148  157 1   
   152  149  150 1   
   153  149  152 1   
   154  149  158 1   
   155  150  151 2   
   156  150  163 1   
   157  152  153 1   
   158  152  159 1   
   159  152  160 1   
   160  153  154 1   
   161  153  161 1   
   162  153  162 1   
   163  154  155 1   
   164  154  156 1   
   165  163  164 1   
   166  163  168 1   
   167  164  165 1   
   168  164  166 1   
   169  164  167 1   
   170  170  171 1   
   171  170  172 1   
   172  173  174 1   
   173  173  175 1   
   174  176  177 1   
   175  176  178 1   
@<TRIPOS>SUBSTRUCTURE
     1 MOL         1 TEMP              0 ****  ****    0 ROOT
