@<TRIPOS>MOLECULE
MOL
  191   184     1     0     0
SMALL
resp


@<TRIPOS>ATOM
      1 C1          0.6900    0.7500    3.0120 c3        1 MOL     -0.511026
      2 C2          1.7730    0.6960    1.9060 c         1 MOL      0.690248
      3 O1          1.7810    1.2940    0.8210 o         1 MOL     -0.541334
      4 H1         -0.1640    1.3260    2.6550 hc        1 MOL      0.134921
      5 H2          0.3680   -0.2620    3.2560 hc        1 MOL      0.134921
      6 H3          1.1020    1.2260    3.9020 hc        1 MOL      0.134921
      7 N1          2.7510   -0.1070    2.2270 n         1 MOL     -0.599794
      8 C3          4.0720   -0.2240    1.4890 c3        1 MOL      0.026996
      9 C4          4.5960   -1.6300    1.2830 c         1 MOL      0.362616
     10 O2          5.6920   -1.8500    0.7230 o         1 MOL     -0.458247
     11 C5          5.2080    0.6360    2.1900 c3        1 MOL     -0.006902
     12 C6          5.5260    0.2100    3.5950 c         1 MOL      0.646266
     13 O3          6.6630    0.4870    4.0290 o         1 MOL     -0.686657
     14 O4          4.7290   -0.4850    4.2240 o         1 MOL     -0.686657
     15 H4          2.7740   -0.3620    3.2000 hn        1 MOL      0.318136
     16 H5          3.8890    0.2710    0.5300 h1        1 MOL      0.111392
     17 H6          4.9200    1.6860    2.1240 hc        1 MOL      0.028120
     18 H7          6.1320    0.6540    1.6050 hc        1 MOL      0.028120
     19 N2          3.9190   -2.6780    1.7760 n         1 MOL     -0.064949
     20 C7          4.3200   -4.0710    1.6570 c3        1 MOL     -0.072012
     21 C8          4.6810   -4.4580    0.2160 c         1 MOL      0.559702
     22 O5          5.6950   -5.1530    0.0570 o         1 MOL     -0.524658
     23 C9          5.3740   -4.3890    2.7390 c3        1 MOL     -0.166537
     24 C10         4.7910   -4.1390    4.1760 c3        1 MOL      0.228201
     25 C11         5.8100   -4.2670    5.2550 c3        1 MOL     -0.086583
     26 C12         7.0090   -3.3360    5.2240 c3        1 MOL      0.055046
     27 N3          6.7320   -1.8670    5.5500 n4        1 MOL     -0.305070
     28 H8          2.9890   -2.5450    2.1450 hn        1 MOL      0.125538
     29 H9          3.4170   -4.6330    1.9150 h1        1 MOL      0.058010
     30 H10         6.1830   -3.6910    2.5700 hc        1 MOL      0.083772
     31 H11         5.6730   -5.4310    2.5640 hc        1 MOL      0.083772
     32 H12         4.1170   -4.9780    4.3550 hc        1 MOL     -0.050703
     33 H13         4.3190   -3.1640    4.2470 hc        1 MOL     -0.050703
     34 H14         6.1720   -5.2900    5.2380 hc        1 MOL      0.025243
     35 H15         5.2500   -4.0780    6.1690 hc        1 MOL      0.025243
     36 H16         7.4450   -3.5750    4.2550 hx        1 MOL      0.054984
     37 H17         7.6940   -3.7790    5.9500 hx        1 MOL      0.054984
     38 H18         6.2610   -1.7860    6.4370 hn        1 MOL      0.295357
     39 H19         7.6240   -1.4030    5.6410 hn        1 MOL      0.295357
     40 H20         6.2150   -1.3330    4.8590 hn        1 MOL      0.295357
     41 N4          3.9390   -3.9750   -0.7960 n         1 MOL     -0.398780
     42 C13         4.3840   -4.0200   -2.1610 c3        1 MOL      0.017325
     43 C14         4.6090   -2.6300   -2.8330 c         1 MOL      0.565673
     44 O6          4.6460   -2.4440   -4.0110 o         1 MOL     -0.522446
     45 C15         3.3220   -4.8900   -2.9460 c3        1 MOL     -0.094509
     46 C16         1.8450   -4.7080   -2.5390 c         1 MOL      0.625172
     47 O7          1.0330   -5.6150   -2.4560 o         1 MOL     -0.684484
     48 O8          1.4390   -3.5480   -2.3160 o         1 MOL     -0.684484
     49 H21         3.1430   -3.3680   -0.6700 hn        1 MOL      0.163601
     50 H22         5.3370   -4.5500   -2.1520 h1        1 MOL      0.105649
     51 H23         3.4840   -5.9350   -2.6830 hc        1 MOL      0.033112
     52 H24         3.4920   -4.8750   -4.0250 hc        1 MOL      0.033112
     53 N5          4.8850   -1.6280   -1.9460 n         1 MOL     -0.497119
     54 C17         5.4620   -0.2920   -2.1960 c3        1 MOL      0.294021
     55 C18         6.9220   -0.0520   -1.9290 c         1 MOL      0.424027
     56 O9          7.7130   -1.0190   -1.8040 o         1 MOL     -0.507395
     57 H25         5.1350   -2.0440   -1.0580 hn        1 MOL      0.232624
     58 H26         4.9190    0.3690   -1.5200 h1        1 MOL     -0.004685
     59 H27         5.2420    0.0320   -3.2170 h1        1 MOL     -0.004685
     60 N6          7.5290    1.1660   -2.0530 n         1 MOL     -0.538914
     61 C19         6.8430    2.4820   -2.0220 c3        1 MOL      0.705413
     62 C20         6.6370    2.9410   -0.5770 c         1 MOL      0.201478
     63 O10         7.5920    2.8840    0.2270 o         1 MOL     -0.520488
     64 C21         7.7230    3.4300   -2.8990 c3        1 MOL     -0.511101
     65 C22         7.9480    2.9960   -4.3640 c         1 MOL      0.744390
     66 N7          8.8200    3.6600   -5.0980 n         1 MOL     -0.813212
     67 O11         7.3980    2.0370   -4.8560 o         1 MOL     -0.542289
     68 H28         8.5320    1.1820   -2.0010 hn        1 MOL      0.311850
     69 H29         5.8800    2.4340   -2.5280 h1        1 MOL     -0.112951
     70 H30         8.6840    3.5000   -2.3920 hc        1 MOL      0.099605
     71 H31         7.2650    4.4180   -2.8880 hc        1 MOL      0.099605
     72 H32         9.2560    4.4430   -4.6260 hn        1 MOL      0.371519
     73 H33         8.9480    3.4440   -6.0820 hn        1 MOL      0.371519
     74 N8          5.4630    3.4300   -0.2060 n         1 MOL     -0.097836
     75 C23         4.2480    3.5900   -0.9040 c3        1 MOL     -0.343096
     76 C24         3.1010    4.2990   -0.1880 c         1 MOL      0.772876
     77 O12         3.4520    5.1920    0.5420 o         1 MOL     -0.553373
     78 H34         5.5370    3.7370    0.7510 hn        1 MOL      0.235402
     79 H35         3.9280    2.6420   -1.3470 h1        1 MOL      0.091101
     80 H36         4.5430    4.3110   -1.6590 h1        1 MOL      0.091101
     81 N9          1.8180    3.9450   -0.4460 n         1 MOL     -0.611317
     82 C25         0.7350    4.7970   -0.0990 c3        1 MOL      0.160654
     83 C26        -0.5560    3.9490    0.1490 c         1 MOL      0.649210
     84 O13        -0.6610    2.7740   -0.1810 o         1 MOL     -0.531255
     85 C27         0.5130    5.9580   -1.1470 c3        1 MOL     -0.268442
     86 C28        -0.2870    7.1030   -0.6150 ca        1 MOL      0.014245
     87 C29        -1.6180    7.4100   -1.0130 ca        1 MOL     -0.026446
     88 C30         0.2510    7.8450    0.4320 ca        1 MOL     -0.026446
     89 C31        -2.3640    8.4330   -0.4170 ca        1 MOL     -0.427643
     90 C32        -0.4720    8.8540    1.1170 ca        1 MOL     -0.427643
     91 C33        -1.7770    9.1330    0.6470 ca        1 MOL      0.454917
     92 O14        -2.5010   10.1430    1.2910 oh        1 MOL     -0.496308
     93 H37         1.6070    3.1550   -1.0400 hn        1 MOL      0.338519
     94 H38         0.9240    5.3910    0.8000 h1        1 MOL      0.029567
     95 H39        -0.0040    5.5720   -2.0350 hc        1 MOL      0.100205
     96 H40         1.4040    6.4800   -1.4760 hc        1 MOL      0.100205
     97 H41        -2.0300    6.8380   -1.8310 ha        1 MOL      0.117405
     98 H42         1.2850    7.6690    0.6880 ha        1 MOL      0.117405
     99 H43        -3.2880    8.7820   -0.8630 ha        1 MOL      0.196101
    100 H44        -0.1680    9.4500    1.9710 ha        1 MOL      0.196101
    101 H45        -1.9320   10.3810    2.0320 ho        1 MOL      0.338407
    102 N10        -1.5240    4.5000    0.8320 n         1 MOL     -0.581016
    103 C34        -2.9130    3.8650    1.0410 c3        1 MOL     -0.058605
    104 C35        -3.8120    4.0400   -0.1830 c         1 MOL      0.590271
    105 O15        -3.6210    5.0040   -0.9660 o         1 MOL     -0.501174
    106 C36        -3.5680    4.3600    2.3690 c3        1 MOL      0.235836
    107 C37        -3.7280    5.8350    2.4190 c3        1 MOL     -0.023831
    108 C38        -4.8550    3.5250    2.6270 c3        1 MOL     -0.223609
    109 C39        -4.0890    6.4110    3.8450 c3        1 MOL     -0.266140
    110 H46        -1.4210    5.4660    1.1050 hn        1 MOL      0.270021
    111 H47        -2.8030    2.7780    1.0640 h1        1 MOL      0.071910
    112 H48        -3.0090    4.0530    3.2540 hc        1 MOL      0.004942
    113 H49        -4.4750    6.1690    1.6930 hc        1 MOL      0.044422
    114 H50        -2.7800    6.3060    2.1660 hc        1 MOL      0.044422
    115 H51        -4.8070    2.4490    2.4130 hc        1 MOL      0.044701
    116 H52        -5.0570    3.7870    3.6660 hc        1 MOL      0.044701
    117 H53        -5.6810    3.8980    2.0160 hc        1 MOL      0.044701
    118 H54        -3.2140    6.3610    4.4920 hc        1 MOL      0.071167
    119 H55        -4.3110    7.4730    3.8660 hc        1 MOL      0.071167
    120 H56        -4.8830    5.8350    4.3070 hc        1 MOL      0.071167
    121 N11        -4.7740    3.1150   -0.3630 n         1 MOL     -0.359938
    122 C40        -5.6880    2.9000   -1.5180 c3        1 MOL     -0.165052
    123 C41        -5.9940    1.3700   -1.7470 c         1 MOL      0.665343
    124 O16        -5.8770    0.5420   -0.8450 o         1 MOL     -0.522775
    125 C42        -7.0930    3.5460   -1.2510 c3        1 MOL      0.091312
    126 O17        -7.4550    3.1140    0.0960 oh        1 MOL     -0.528203
    127 H57        -4.8980    2.5200    0.4470 hn        1 MOL      0.239525
    128 H58        -5.0700    3.1900   -2.3700 h1        1 MOL      0.121433
    129 H59        -7.8130    3.2280   -2.0170 h1        1 MOL      0.049400
    130 H60        -7.0270    4.6360   -1.2830 h1        1 MOL      0.049400
    131 H61        -8.2540    3.5810    0.3580 ho        1 MOL      0.389404
    132 N12        -6.3200    0.9450   -2.9550 n         1 MOL     -0.546779
    133 C43        -6.2890   -0.3520   -3.5950 c3        1 MOL      0.085390
    134 C44        -6.9290   -1.5170   -2.7160 c         1 MOL      0.433161
    135 O18        -6.2810   -2.5790   -2.6580 o         1 MOL     -0.445366
    136 C45        -4.8860   -0.6300   -4.1410 c3        1 MOL     -0.263870
    137 H62        -6.5890    1.6090   -3.6650 hn        1 MOL      0.305179
    138 H63        -6.9550   -0.3250   -4.4540 h1        1 MOL      0.076164
    139 H64        -4.8640   -1.6000   -4.6310 hc        1 MOL      0.102676
    140 H65        -4.5040    0.0850   -4.8700 hc        1 MOL      0.102676
    141 H66        -4.0910   -0.6990   -3.4000 hc        1 MOL      0.102676
    142 N13        -8.0440   -1.2960   -1.9750 n         1 MOL     -0.495953
    143 C46        -8.7480   -2.3060   -1.1990 c3        1 MOL      0.220623
    144 C47        -7.8440   -3.0680   -0.1630 c         1 MOL      0.397600
    145 O19        -7.8940   -4.2560   -0.0940 o         1 MOL     -0.461137
    146 C48        -9.6670   -3.2010   -2.0520 c3        1 MOL     -0.346024
    147 H67        -8.4520   -0.3770   -2.0700 hn        1 MOL      0.308659
    148 H68        -9.2900   -1.6820   -0.5040 h1        1 MOL      0.027202
    149 H69        -9.1200   -3.6860   -2.8640 hc        1 MOL      0.106841
    150 H70       -10.1470   -4.0130   -1.5010 hc        1 MOL      0.106841
    151 H71       -10.5410   -2.7040   -2.4760 hc        1 MOL      0.106841
    152 N14        -6.8290   -2.4320    0.4980 n         1 MOL     -0.414806
    153 C49        -5.9460   -3.0070    1.5600 c3        1 MOL     -0.050184
    154 C50        -6.5390   -2.9140    2.9540 c         1 MOL      0.524538
    155 O20        -6.2290   -3.7710    3.7860 o         1 MOL     -0.506189
    156 C51        -4.5510   -2.3810    1.3710 c3        1 MOL      0.212176
    157 C52        -3.5120   -3.1210    2.2610 c3        1 MOL     -0.283015
    158 C53        -3.0530   -4.4980    1.6690 c         1 MOL      0.803143
    159 O21        -3.0750   -4.6750    0.4530 o         1 MOL     -0.739585
    160 O22        -2.6410   -5.4140    2.3740 o         1 MOL     -0.739585
    161 H72        -6.6650   -1.4300    0.4080 hn        1 MOL      0.245471
    162 H73        -5.7930   -4.0640    1.3220 h1        1 MOL      0.146935
    163 H74        -4.6920   -1.3430    1.6580 hc        1 MOL     -0.044059
    164 H75        -4.2610   -2.3880    0.3250 hc        1 MOL     -0.044059
    165 H76        -3.8520   -3.1680    3.2980 hc        1 MOL      0.041830
    166 H77        -2.6520   -2.4590    2.2390 hc        1 MOL      0.041830
    167 N15        -7.2970   -1.8460    3.2510 n         1 MOL     -0.355384
    168 C54        -7.9940   -1.8360    4.5670 c3        1 MOL     -0.134588
    169 H78        -8.9610   -1.3450    4.4610 h1        1 MOL      0.088048
    170 H79        -8.1410   -2.8600    4.9080 h1        1 MOL      0.088048
    171 H80        -7.3900   -1.2930    5.2940 h1        1 MOL      0.088048
    172 H81        -7.2500   -1.0620    2.6100 hn        1 MOL      0.259605
    173 Ca1        -1.0640   -4.3460   -1.4370 Ca        1 MOL      1.761742
    174 O23        -1.3170   -1.7200   -1.1190 oh        1 MOL     -0.837475
    175 H82        -0.8920   -0.9840   -1.5590 ho        1 MOL      0.410452
    176 H83        -1.9620   -1.3160   -0.5460 ho        1 MOL      0.410452
    177 O24         0.3170   -3.5360    0.9230 oh        1 MOL     -0.837475
    178 H84         0.3700   -2.5750    0.9480 ho        1 MOL      0.410452
    179 H85         0.7480   -3.8120    1.7360 ho        1 MOL      0.410452
    180 O25        -0.6660   -6.3770    0.4580 oh        1 MOL     -0.837475
    181 H86        -0.3620   -7.2110    0.8200 ho        1 MOL      0.410452
    182 H87        -1.3260   -6.0800    1.0800 ho        1 MOL      0.410452
    183 O26        -3.3950   -3.3770   -2.5890 oh        1 MOL     -0.837475
    184 H88        -4.0680   -2.8410   -2.1710 ho        1 MOL      0.410452
    185 H89        -3.8870   -3.9780   -3.1540 ho        1 MOL      0.410452
    186 O27        -1.1260   -3.9120   -4.2860 oh        1 MOL     -0.837475
    187 H90        -0.5740   -4.5580   -4.7120 ho        1 MOL      0.410452
    188 H91        -1.7360   -3.6250   -4.9700 ho        1 MOL      0.410452
    189 O28        -2.0800   -6.5260   -2.2720 oh        1 MOL     -0.837475
    190 H92        -1.6210   -7.3570   -2.1380 ho        1 MOL      0.410452
    191 H93        -3.0100   -6.7520   -2.2040 ho        1 MOL      0.410452
@<TRIPOS>BOND
     1    1    2 1   
     2    1    4 1   
     3    1    5 1   
     4    1    6 1   
     5    2    3 2   
     6    2    7 1   
     7    7    8 1   
     8    7   15 1   
     9    8    9 1   
    10    8   11 1   
    11    8   16 1   
    12    9   10 2   
    13    9   19 1   
    14   11   12 1   
    15   11   17 1   
    16   11   18 1   
    17   12   13 1   
    18   12   14 1   
    19   19   20 1   
    20   19   28 1   
    21   20   21 1   
    22   20   23 1   
    23   20   29 1   
    24   21   22 2   
    25   21   41 1   
    26   23   24 1   
    27   23   30 1   
    28   23   31 1   
    29   24   25 1   
    30   24   32 1   
    31   24   33 1   
    32   25   26 1   
    33   25   34 1   
    34   25   35 1   
    35   26   27 1   
    36   26   36 1   
    37   26   37 1   
    38   27   38 1   
    39   27   39 1   
    40   27   40 1   
    41   41   42 1   
    42   41   49 1   
    43   42   43 1   
    44   42   45 1   
    45   42   50 1   
    46   43   44 2   
    47   43   53 1   
    48   45   46 1   
    49   45   51 1   
    50   45   52 1   
    51   46   47 1   
    52   46   48 1   
    53   53   54 1   
    54   53   57 1   
    55   54   55 1   
    56   54   58 1   
    57   54   59 1   
    58   55   56 2   
    59   55   60 1   
    60   60   61 1   
    61   60   68 1   
    62   61   62 1   
    63   61   64 1   
    64   61   69 1   
    65   62   63 2   
    66   62   74 1   
    67   64   65 1   
    68   64   70 1   
    69   64   71 1   
    70   65   66 1   
    71   65   67 2   
    72   66   72 1   
    73   66   73 1   
    74   74   75 1   
    75   74   78 1   
    76   75   76 1   
    77   75   79 1   
    78   75   80 1   
    79   76   77 2   
    80   76   81 1   
    81   81   82 1   
    82   81   93 1   
    83   82   83 1   
    84   82   85 1   
    85   82   94 1   
    86   83   84 2   
    87   83  102 1   
    88   85   86 1   
    89   85   95 1   
    90   85   96 1   
    91   86   87 ar  
    92   86   88 ar  
    93   87   89 ar  
    94   87   97 1   
    95   88   90 ar  
    96   88   98 1   
    97   89   91 ar  
    98   89   99 1   
    99   90   91 ar  
   100   90  100 1   
   101   91   92 1   
   102   92  101 1   
   103  102  103 1   
   104  102  110 1   
   105  103  104 1   
   106  103  106 1   
   107  103  111 1   
   108  104  105 2   
   109  104  121 1   
   110  106  107 1   
   111  106  108 1   
   112  106  112 1   
   113  107  109 1   
   114  107  113 1   
   115  107  114 1   
   116  108  115 1   
   117  108  116 1   
   118  108  117 1   
   119  109  118 1   
   120  109  119 1   
   121  109  120 1   
   122  121  122 1   
   123  121  127 1   
   124  122  123 1   
   125  122  125 1   
   126  122  128 1   
   127  123  124 2   
   128  123  132 1   
   129  125  126 1   
   130  125  129 1   
   131  125  130 1   
   132  126  131 1   
   133  132  133 1   
   134  132  137 1   
   135  133  134 1   
   136  133  136 1   
   137  133  138 1   
   138  134  135 2   
   139  134  142 1   
   140  136  139 1   
   141  136  140 1   
   142  136  141 1   
   143  142  143 1   
   144  142  147 1   
   145  143  144 1   
   146  143  146 1   
   147  143  148 1   
   148  144  145 2   
   149  144  152 1   
   150  146  149 1   
   151  146  150 1   
   152  146  151 1   
   153  152  153 1   
   154  152  161 1   
   155  153  154 1   
   156  153  156 1   
   157  153  162 1   
   158  154  155 2   
   159  154  167 1   
   160  156  157 1   
   161  156  163 1   
   162  156  164 1   
   163  157  158 1   
   164  157  165 1   
   165  157  166 1   
   166  158  159 1   
   167  158  160 1   
   168  167  168 1   
   169  167  172 1   
   170  168  169 1   
   171  168  170 1   
   172  168  171 1   
   173  174  175 1   
   174  174  176 1   
   175  177  178 1   
   176  177  179 1   
   177  180  181 1   
   178  180  182 1   
   179  183  184 1   
   180  183  185 1   
   181  186  187 1   
   182  186  188 1   
   183  189  190 1   
   184  189  191 1   
@<TRIPOS>SUBSTRUCTURE
     1 MOL         1 TEMP              0 ****  ****    0 ROOT
