@<TRIPOS>MOLECULE
MOL
  178   175     1     0     0
SMALL
resp


@<TRIPOS>ATOM
      1 C1          2.2790   -2.8570    4.5380 c3        1 MOL     -0.345528
      2 C2          3.3370   -2.0790    3.7190 c         1 MOL      0.536658
      3 O1          3.3520   -2.0580    2.4740 o         1 MOL     -0.471712
      4 H1          1.7560   -3.5560    3.8860 hc        1 MOL      0.091039
      5 H2          2.7710   -3.4070    5.3390 hc        1 MOL      0.091039
      6 H3          1.5630   -2.1540    4.9660 hc        1 MOL      0.091039
      7 N1          4.2130   -1.3400    4.3790 n         1 MOL     -0.268392
      8 C3          5.1900   -0.4460    3.8190 c3        1 MOL     -0.161354
      9 C4          6.1620   -1.1560    2.8310 c         1 MOL      0.525684
     10 O2          6.6780   -0.4930    1.9410 o         1 MOL     -0.452250
     11 C5          5.9230    0.3130    4.9140 c3        1 MOL     -0.089095
     12 C6          6.9940    1.2430    4.3420 c         1 MOL      0.751550
     13 O3          6.5680    2.2920    3.8140 o         1 MOL     -0.737087
     14 O4          8.2030    1.0990    4.6520 o         1 MOL     -0.737087
     15 H4          4.0690   -1.2050    5.3650 hn        1 MOL      0.208862
     16 H5          4.5400    0.2120    3.2330 h1        1 MOL      0.109647
     17 H6          6.3450   -0.3750    5.6420 hc        1 MOL     -0.008969
     18 H7          5.2760    0.9980    5.4710 hc        1 MOL     -0.008969
     19 N2          6.3840   -2.4570    2.9620 n         1 MOL     -0.402047
     20 C7          7.1270   -3.3050    2.1210 c3        1 MOL      0.295454
     21 C8          6.8520   -3.2130    0.5870 c         1 MOL      0.255147
     22 O5          7.7220   -3.4890   -0.2240 o         1 MOL     -0.521041
     23 C9          8.6300   -3.2300    2.5920 c3        1 MOL     -0.406363
     24 H8          5.8270   -3.0060    3.6010 hn        1 MOL      0.214678
     25 H9          6.7500   -4.2960    2.3810 h1        1 MOL      0.055937
     26 H10         9.2230   -4.0200    2.1290 hc        1 MOL      0.101421
     27 H11         8.9930   -2.2360    2.3350 hc        1 MOL      0.101421
     28 H12         8.8210   -3.5200    3.6230 hc        1 MOL      0.101421
     29 N3          5.6170   -2.9670    0.1950 n         1 MOL     -0.084565
     30 C10         5.1210   -2.6730   -1.2080 c3        1 MOL      0.140347
     31 C11         5.7550   -1.4170   -1.8240 c         1 MOL      0.453784
     32 O6          6.0190   -1.3090   -3.0080 o         1 MOL     -0.525729
     33 C12         5.1070   -3.9800   -1.9540 c3        1 MOL     -0.197028
     34 C13         4.0750   -4.9260   -1.4390 c         1 MOL      0.713234
     35 O7          4.5250   -5.8230   -0.6940 o         1 MOL     -0.712000
     36 O8          2.8910   -4.7090   -1.6470 o         1 MOL     -0.712000
     37 H13         5.0270   -2.6900    0.9680 hn        1 MOL      0.100435
     38 H14         4.0560   -2.4220   -1.1180 h1        1 MOL      0.006736
     39 H15         6.0790   -4.4570   -2.0310 hc        1 MOL      0.007870
     40 H16         4.8350   -3.7870   -2.9880 hc        1 MOL      0.007870
     41 N4          6.0920   -0.4410   -0.9160 n         1 MOL     -0.130103
     42 C14         6.6200    0.8380   -1.3860 c3        1 MOL     -0.147278
     43 C15         5.5750    1.6420   -2.2430 c         1 MOL      0.553560
     44 O9          6.0020    2.3840   -3.1580 o         1 MOL     -0.601886
     45 H17         5.9330   -0.5640    0.0710 hn        1 MOL      0.127899
     46 H18         7.5190    0.8140   -1.9980 h1        1 MOL      0.097872
     47 H19         6.8470    1.3530   -0.4630 h1        1 MOL      0.097872
     48 N5          4.2580    1.4130   -2.1200 n         1 MOL     -0.289782
     49 C16         3.1600    2.2050   -2.7790 c3        1 MOL     -0.022690
     50 C17         3.0710    3.6310   -2.1650 c         1 MOL      0.483621
     51 O10         2.9110    3.6570   -0.8780 o         1 MOL     -0.497967
     52 C18         1.8680    1.4260   -2.6850 c3        1 MOL     -0.546820
     53 C19         1.8040    0.1100   -3.5060 c         1 MOL      0.752128
     54 N6          1.7700    0.2310   -4.8400 n         1 MOL     -0.759239
     55 O11         1.7880   -0.9880   -3.0690 o         1 MOL     -0.594225
     56 H20         4.1010    0.6700   -1.4560 hn        1 MOL      0.218469
     57 H21         3.4860    2.2970   -3.8210 h1        1 MOL      0.066049
     58 H22         1.0610    2.0520   -3.0490 hc        1 MOL      0.222162
     59 H23         1.6910    1.0970   -1.6550 hc        1 MOL      0.222162
     60 H24         1.7450    1.1220   -5.3310 hn        1 MOL      0.333251
     61 H25         1.6280   -0.5840   -5.4240 hn        1 MOL      0.333251
     62 N7          3.2470    4.6830   -2.9290 n         1 MOL     -0.264762
     63 C20         2.9360    5.9800   -2.3810 c3        1 MOL     -0.279599
     64 C21         1.4590    6.1470   -1.9740 c         1 MOL      0.672557
     65 O12         0.5760    5.5750   -2.5950 o         1 MOL     -0.519259
     66 H26         3.3670    4.5460   -3.9230 hn        1 MOL      0.273379
     67 H27         3.0630    6.6880   -3.1940 h1        1 MOL      0.133063
     68 H28         3.6300    6.2950   -1.6040 h1        1 MOL      0.133063
     69 N8          1.1700    7.0490   -1.0230 n         1 MOL     -0.584147
     70 C22        -0.1860    7.5820   -0.7580 c3        1 MOL     -0.147335
     71 C23        -1.0830    6.6010    0.0290 c         1 MOL      0.360905
     72 O13        -2.2060    6.9910    0.4980 o         1 MOL     -0.565581
     73 C24        -0.2480    8.9810   -0.1690 c3        1 MOL      0.512971
     74 C25        -0.0140    9.0430    1.3380 c3        1 MOL     -0.211811
     75 O14         0.6820    9.9420   -0.6590 oh        1 MOL     -0.680055
     76 H29         1.9380    7.4970   -0.5430 hn        1 MOL      0.309989
     77 H30        -0.7180    7.7320   -1.6980 h1        1 MOL      0.126004
     78 H31        -1.2260    9.4190   -0.3660 h1        1 MOL      0.020796
     79 H32         1.5760    9.6060   -0.6370 ho        1 MOL      0.385115
     80 H33         0.6330    9.8470    1.6990 hc        1 MOL      0.045340
     81 H34        -0.9960    9.0590    1.8090 hc        1 MOL      0.045340
     82 H35         0.4800    8.1410    1.7020 hc        1 MOL      0.045340
     83 N9         -0.7470    5.3330    0.0850 n         1 MOL     -0.008448
     84 C26        -1.4640    4.2120    0.7200 c3        1 MOL     -0.088540
     85 C27        -1.5160    2.9960   -0.1690 c         1 MOL      0.310303
     86 O15        -0.5740    2.8340   -0.9750 o         1 MOL     -0.409412
     87 C28        -0.8970    3.9080    2.1730 c3        1 MOL      0.159324
     88 C29         0.5160    3.3610    2.0210 c3        1 MOL     -0.222615
     89 C30        -1.0410    5.0740    3.1570 c3        1 MOL     -0.306044
     90 C31         1.2690    2.9870    3.3540 c3        1 MOL     -0.298596
     91 H36         0.0210    4.9830   -0.4630 hn        1 MOL      0.127272
     92 H37        -2.4950    4.5490    0.8590 h1        1 MOL      0.076650
     93 H38        -1.4570    3.0590    2.5650 hc        1 MOL     -0.005314
     94 H39         1.1130    4.0160    1.3910 hc        1 MOL      0.153106
     95 H40         0.4130    2.3600    1.5840 hc        1 MOL      0.153106
     96 H41        -0.3460    5.8550    2.8430 hc        1 MOL      0.075665
     97 H42        -2.0920    5.3180    3.0120 hc        1 MOL      0.075665
     98 H43        -0.8820    4.8770    4.2170 hc        1 MOL      0.075665
     99 H44         1.5910    3.8550    3.9350 hc        1 MOL      0.098106
    100 H45         0.5770    2.3760    3.9170 hc        1 MOL      0.098106
    101 H46         2.1100    2.3100    3.1950 hc        1 MOL      0.098106
    102 N10        -2.4940    2.0930    0.0070 n         1 MOL     -0.301417
    103 C32        -2.4600    0.8030   -0.6440 c3        1 MOL     -0.005529
    104 C33        -3.8550    0.1300   -0.6620 c         1 MOL      0.454790
    105 O16        -4.0820   -1.0940   -0.7070 o         1 MOL     -0.401078
    106 C34        -1.3530   -0.0420    0.1020 c3        1 MOL     -0.041294
    107 C35        -0.6160   -1.1370   -0.6980 c         1 MOL      0.651196
    108 O17         0.3760   -1.7490   -0.1880 o         1 MOL     -0.710719
    109 O18        -1.0220   -1.3380   -1.8740 o         1 MOL     -0.710719
    110 H47        -3.2990    2.3870    0.5480 hn        1 MOL      0.212161
    111 H48        -2.1710    0.8970   -1.6900 h1        1 MOL      0.070573
    112 H49        -1.8780   -0.5360    0.9210 hc        1 MOL     -0.001103
    113 H50        -0.6150    0.7050    0.4180 hc        1 MOL     -0.001103
    114 N11        -4.8750    1.0600   -0.5670 n         1 MOL     -0.424275
    115 C36        -6.2870    0.5050   -0.4870 c3        1 MOL      0.094184
    116 C37        -6.5280   -0.6660    0.5140 c         1 MOL      0.261325
    117 O19        -6.0590   -0.4840    1.5990 o         1 MOL     -0.478019
    118 C38        -7.1360    1.7120   -0.1600 c3        1 MOL     -0.153333
    119 C39        -8.6440    1.3250   -0.0990 ca        1 MOL      0.004689
    120 C40        -9.4500    1.3380   -1.2890 ca        1 MOL     -0.132225
    121 C41        -9.2810    1.0680    1.1710 ca        1 MOL     -0.132225
    122 C42       -10.7950    0.9500   -1.2610 ca        1 MOL     -0.127997
    123 C43       -10.6100    0.6050    1.1230 ca        1 MOL     -0.127997
    124 C44       -11.3280    0.5040   -0.0350 ca        1 MOL     -0.087881
    125 H51        -4.6990    2.0450   -0.7380 hn        1 MOL      0.275555
    126 H52        -6.4780    0.1790   -1.5060 h1        1 MOL      0.027022
    127 H53        -6.9790    2.5200   -0.8820 hc        1 MOL      0.089736
    128 H54        -6.8380    2.1740    0.7800 hc        1 MOL      0.089736
    129 H55        -8.9760    1.5330   -2.2360 ha        1 MOL      0.132490
    130 H56        -8.7860    1.1300    2.1260 ha        1 MOL      0.132490
    131 H57       -11.3520    0.8090   -2.1700 ha        1 MOL      0.111185
    132 H58       -11.1550    0.4640    2.0520 ha        1 MOL      0.111185
    133 H59       -12.3540    0.2080    0.0750 ha        1 MOL      0.094406
    134 N12        -7.2880   -1.7260    0.1360 n         1 MOL      0.035573
    135 C45        -7.6000   -2.8010    1.1510 c3        1 MOL     -0.025153
    136 C46        -6.3810   -3.4740    1.7480 c         1 MOL      0.348152
    137 O20        -6.5510   -4.3110    2.6120 o         1 MOL     -0.500526
    138 C47        -8.4430   -3.8070    0.3320 c3        1 MOL     -0.069261
    139 C48        -9.1060   -2.9350   -0.7680 c3        1 MOL      0.026363
    140 C49        -8.0360   -1.9430   -1.1040 c3        1 MOL      0.024384
    141 H60        -8.2300   -2.3480    1.9270 h1        1 MOL      0.085683
    142 H61        -7.7580   -4.5610   -0.0610 hc        1 MOL      0.043958
    143 H62        -9.0990   -4.3630    1.0050 hc        1 MOL      0.043958
    144 H63        -9.5490   -3.5040   -1.5810 hc        1 MOL      0.001772
    145 H64        -9.8810   -2.3870   -0.2190 hc        1 MOL      0.001772
    146 H65        -7.3690   -2.4270   -1.8260 h1        1 MOL      0.009330
    147 H66        -8.4760   -1.0100   -1.4440 h1        1 MOL      0.009330
    148 N13        -5.1360   -3.3110    1.2480 n         1 MOL     -0.033088
    149 C50        -3.9860   -3.7750    1.9950 c3        1 MOL     -0.442531
    150 C51        -3.7760   -2.9400    3.1970 c         1 MOL      0.587045
    151 O21        -3.5040   -3.3960    4.3310 o         1 MOL     -0.561298
    152 C52        -2.7010   -3.8110    1.1370 c3        1 MOL      0.328089
    153 C53        -2.7960   -4.7150   -0.0750 c3        1 MOL     -0.408237
    154 C54        -1.5230   -4.5440   -1.0330 c         1 MOL      0.771987
    155 O22        -0.3520   -4.5300   -0.5790 o         1 MOL     -0.739937
    156 O23        -1.7030   -4.5290   -2.2500 o         1 MOL     -0.739937
    157 H67        -4.9860   -2.7530    0.4240 hn        1 MOL      0.107334
    158 H68        -4.1630   -4.8190    2.2550 h1        1 MOL      0.155930
    159 H69        -1.8340   -4.0770    1.7510 hc        1 MOL      0.014532
    160 H70        -2.4540   -2.7960    0.8060 hc        1 MOL      0.014532
    161 H71        -3.7080   -4.4610   -0.6230 hc        1 MOL      0.070767
    162 H72        -2.7500   -5.7040    0.3680 hc        1 MOL      0.070767
    163 N14        -3.8000   -1.6110    2.9790 n         1 MOL     -0.281421
    164 C55        -3.7340   -0.5600    4.0200 c3        1 MOL     -0.231534
    165 H73        -3.2760    0.3360    3.6010 h1        1 MOL      0.095070
    166 H74        -4.7400   -0.3250    4.3640 h1        1 MOL      0.095070
    167 H75        -3.1350   -0.9150    4.8580 h1        1 MOL      0.095070
    168 H76        -4.0510   -1.2210    2.0820 hn        1 MOL      0.317353
    169 Ca1         0.8220   -3.3190   -2.5980 Ca        1 MOL      1.736714
    170 O24         2.5320   -3.8440   -4.5690 oh        1 MOL     -0.813900
    171 H77         2.8600   -4.7380   -4.6870 ho        1 MOL      0.399416
    172 H78         3.2170   -3.2850   -4.9520 ho        1 MOL      0.399416
    173 O25         0.7700   -5.8700   -4.0530 oh        1 MOL     -0.813900
    174 H79         1.1650   -6.7120   -3.8040 ho        1 MOL      0.399416
    175 H80         0.5560   -5.9740   -4.9780 ho        1 MOL      0.399416
    176 O26        -0.3950   -2.9470   -5.0180 oh        1 MOL     -0.813900
    177 H81        -1.3090   -3.0530   -5.2790 ho        1 MOL      0.399416
    178 H82         0.0990   -3.0420   -5.8290 ho        1 MOL      0.399416
@<TRIPOS>BOND
     1    1    2 1   
     2    1    4 1   
     3    1    5 1   
     4    1    6 1   
     5    2    3 2   
     6    2    7 1   
     7    7    8 1   
     8    7   15 1   
     9    8    9 1   
    10    8   11 1   
    11    8   16 1   
    12    9   10 2   
    13    9   19 1   
    14   11   12 1   
    15   11   17 1   
    16   11   18 1   
    17   12   13 1   
    18   12   14 1   
    19   19   20 1   
    20   19   24 1   
    21   20   21 1   
    22   20   23 1   
    23   20   25 1   
    24   21   22 2   
    25   21   29 1   
    26   23   26 1   
    27   23   27 1   
    28   23   28 1   
    29   29   30 1   
    30   29   37 1   
    31   30   31 1   
    32   30   33 1   
    33   30   38 1   
    34   31   32 2   
    35   31   41 1   
    36   33   34 1   
    37   33   39 1   
    38   33   40 1   
    39   34   35 1   
    40   34   36 1   
    41   41   42 1   
    42   41   45 1   
    43   42   43 1   
    44   42   46 1   
    45   42   47 1   
    46   43   44 2   
    47   43   48 1   
    48   48   49 1   
    49   48   56 1   
    50   49   50 1   
    51   49   52 1   
    52   49   57 1   
    53   50   51 2   
    54   50   62 1   
    55   52   53 1   
    56   52   58 1   
    57   52   59 1   
    58   53   54 1   
    59   53   55 2   
    60   54   60 1   
    61   54   61 1   
    62   62   63 1   
    63   62   66 1   
    64   63   64 1   
    65   63   67 1   
    66   63   68 1   
    67   64   65 2   
    68   64   69 1   
    69   69   70 1   
    70   69   76 1   
    71   70   71 1   
    72   70   73 1   
    73   70   77 1   
    74   71   72 2   
    75   71   83 1   
    76   73   74 1   
    77   73   75 1   
    78   73   78 1   
    79   74   80 1   
    80   74   81 1   
    81   74   82 1   
    82   75   79 1   
    83   83   84 1   
    84   83   91 1   
    85   84   85 1   
    86   84   87 1   
    87   84   92 1   
    88   85   86 2   
    89   85  102 1   
    90   87   88 1   
    91   87   89 1   
    92   87   93 1   
    93   88   90 1   
    94   88   94 1   
    95   88   95 1   
    96   89   96 1   
    97   89   97 1   
    98   89   98 1   
    99   90   99 1   
   100   90  100 1   
   101   90  101 1   
   102  102  103 1   
   103  102  110 1   
   104  103  104 1   
   105  103  106 1   
   106  103  111 1   
   107  104  105 2   
   108  104  114 1   
   109  106  107 1   
   110  106  112 1   
   111  106  113 1   
   112  107  108 1   
   113  107  109 1   
   114  114  115 1   
   115  114  125 1   
   116  115  116 1   
   117  115  118 1   
   118  115  126 1   
   119  116  117 2   
   120  116  134 1   
   121  118  119 1   
   122  118  127 1   
   123  118  128 1   
   124  119  120 ar  
   125  119  121 ar  
   126  120  122 ar  
   127  120  129 1   
   128  121  123 ar  
   129  121  130 1   
   130  122  124 ar  
   131  122  131 1   
   132  123  124 ar  
   133  123  132 1   
   134  124  133 1   
   135  134  135 1   
   136  134  140 1   
   137  135  136 1   
   138  135  138 1   
   139  135  141 1   
   140  136  137 2   
   141  136  148 1   
   142  138  139 1   
   143  138  142 1   
   144  138  143 1   
   145  139  140 1   
   146  139  144 1   
   147  139  145 1   
   148  140  146 1   
   149  140  147 1   
   150  148  149 1   
   151  148  157 1   
   152  149  150 1   
   153  149  152 1   
   154  149  158 1   
   155  150  151 2   
   156  150  163 1   
   157  152  153 1   
   158  152  159 1   
   159  152  160 1   
   160  153  154 1   
   161  153  161 1   
   162  153  162 1   
   163  154  155 1   
   164  154  156 1   
   165  163  164 1   
   166  163  168 1   
   167  164  165 1   
   168  164  166 1   
   169  164  167 1   
   170  170  171 1   
   171  170  172 1   
   172  173  174 1   
   173  173  175 1   
   174  176  177 1   
   175  176  178 1   
@<TRIPOS>SUBSTRUCTURE
     1 MOL         1 TEMP              0 ****  ****    0 ROOT
