@<TRIPOS>MOLECULE
MOL
  178   175     1     0     0
SMALL
resp


@<TRIPOS>ATOM
      1 C1         -1.7860    6.8620    2.3310 c3        1 MOL     -0.433507
      2 C2         -3.1550    6.4930    1.7440 c         1 MOL      0.749466
      3 O1         -3.6420    6.9990    0.7210 o         1 MOL     -0.592831
      4 H1         -1.8080    7.8940    2.6810 hc        1 MOL      0.105505
      5 H2         -1.5570    6.2000    3.1650 hc        1 MOL      0.105505
      6 H3         -1.0200    6.7570    1.5620 hc        1 MOL      0.105505
      7 N1         -3.8350    5.6520    2.5160 n         1 MOL     -0.610775
      8 C3         -5.0550    4.9650    2.0040 c3        1 MOL      0.137407
      9 C4         -4.7560    3.9050    0.8600 c         1 MOL      0.470223
     10 O2         -3.9010    3.0590    0.9920 o         1 MOL     -0.492974
     11 C5         -5.8210    4.3760    3.2080 c3        1 MOL     -0.204357
     12 C6         -7.1250    3.7710    2.8440 c         1 MOL      0.665458
     13 O3         -8.0730    4.5350    2.5840 o         1 MOL     -0.715698
     14 O4         -7.2000    2.4970    2.6540 o         1 MOL     -0.715698
     15 H4         -3.4700    5.3440    3.3970 hn        1 MOL      0.334657
     16 H5         -5.7310    5.6870    1.5440 h1        1 MOL      0.076204
     17 H6         -6.0210    5.2190    3.8700 hc        1 MOL      0.022062
     18 H7         -5.1890    3.7050    3.7760 hc        1 MOL      0.022062
     19 N2         -5.4280    4.0370   -0.3000 n         1 MOL     -0.457821
     20 C7         -5.0500    3.2900   -1.5570 c3        1 MOL      0.199876
     21 C8         -3.6430    3.8510   -2.0640 c         1 MOL      0.429460
     22 O5         -3.0820    4.7980   -1.5460 o         1 MOL     -0.505293
     23 C9         -6.2030    3.3640   -2.6130 c3        1 MOL     -0.206292
     24 H8         -6.0240    4.8350   -0.4440 hn        1 MOL      0.307519
     25 H9         -4.8680    2.2390   -1.3080 h1        1 MOL      0.154184
     26 H10        -6.1600    2.5310   -3.3180 hc        1 MOL      0.053215
     27 H11        -7.1730    3.2890   -2.1240 hc        1 MOL      0.053215
     28 H12        -6.1950    4.2500   -3.2500 hc        1 MOL      0.053215
     29 N3         -2.9210    3.1830   -2.9790 n         1 MOL     -0.336026
     30 C10        -3.3100    1.9550   -3.7470 c3        1 MOL     -0.160508
     31 C11        -3.7750    0.7960   -2.8530 c         1 MOL      0.430007
     32 O6         -3.3040    0.6150   -1.7120 o         1 MOL     -0.608220
     33 C12        -2.1740    1.5060   -4.6310 c3        1 MOL     -0.088063
     34 C13        -0.7710    1.2340   -3.9190 c         1 MOL      0.707494
     35 O7         -0.7270    0.4820   -2.9000 o         1 MOL     -0.699328
     36 O8          0.2770    1.6760   -4.5150 o         1 MOL     -0.699328
     37 H13        -2.0460    3.6250   -3.2300 hn        1 MOL      0.278033
     38 H14        -4.1700    2.2340   -4.3660 h1        1 MOL      0.087869
     39 H15        -1.9660    2.2000   -5.4490 hc        1 MOL      0.028775
     40 H16        -2.3860    0.5710   -5.1430 hc        1 MOL      0.028775
     41 N4         -4.7050   -0.0360   -3.3560 n         1 MOL     -0.317378
     42 C14        -5.1420   -1.2430   -2.6030 c3        1 MOL     -0.037859
     43 C15        -6.2980   -1.1140   -1.5910 c         1 MOL      0.553604
     44 O9         -6.9740   -0.0560   -1.5260 o         1 MOL     -0.548100
     45 H17        -5.0700    0.0660   -4.2890 hn        1 MOL      0.278795
     46 H18        -4.3090   -1.7930   -2.1650 h1        1 MOL      0.084118
     47 H19        -5.5490   -1.9390   -3.3470 h1        1 MOL      0.084118
     48 N5         -6.5960   -1.9960   -0.6470 n         1 MOL     -0.471444
     49 C16        -6.1560   -3.3830   -0.5940 c3        1 MOL      0.202548
     50 C17        -5.6390   -3.7650    0.8010 c         1 MOL      0.500119
     51 O10        -5.4070   -4.9340    1.0470 o         1 MOL     -0.534571
     52 C18        -7.4030   -4.2290   -1.1210 c3        1 MOL     -0.386748
     53 C19        -8.0130   -3.9020   -2.5150 c         1 MOL      0.743267
     54 N6         -9.3260   -3.8740   -2.6130 n         1 MOL     -0.824273
     55 O11        -7.3520   -3.5710   -3.4780 o         1 MOL     -0.558126
     56 H20        -7.2760   -1.7880    0.0760 hn        1 MOL      0.291036
     57 H21        -5.2760   -3.3350   -1.2370 h1        1 MOL      0.006482
     58 H22        -8.1510   -4.1910   -0.3400 hc        1 MOL      0.096452
     59 H23        -7.1040   -5.2590   -1.3320 hc        1 MOL      0.096452
     60 H24        -9.8310   -4.0200   -1.7390 hn        1 MOL      0.379212
     61 H25        -9.7290   -3.6800   -3.5140 hn        1 MOL      0.379212
     62 N7         -5.4530   -2.7860    1.6960 n         1 MOL     -0.300133
     63 C20        -5.0510   -3.0160    3.0890 c3        1 MOL     -0.205526
     64 C21        -3.5850   -3.5080    3.3490 c         1 MOL      0.568483
     65 O12        -3.3610   -3.8060    4.4910 o         1 MOL     -0.569193
     66 H26        -5.7120   -1.8430    1.4230 hn        1 MOL      0.254907
     67 H27        -5.7680   -3.7780    3.4160 h1        1 MOL      0.121446
     68 H28        -5.2420   -2.1430    3.7120 h1        1 MOL      0.121446
     69 N8         -2.7060   -3.5710    2.3630 n         1 MOL     -0.176385
     70 C22        -1.3180   -4.1040    2.5360 c3        1 MOL     -0.286642
     71 C23        -0.1870   -3.0600    2.2410 c         1 MOL      0.742749
     72 O13        -0.3590   -2.0120    1.5540 o         1 MOL     -0.661143
     73 C24        -1.0640   -5.3230    1.6150 c3        1 MOL      0.369553
     74 C25        -2.1320   -6.3430    1.9270 c3        1 MOL     -0.546015
     75 O14        -1.1380   -4.8980    0.2550 oh        1 MOL     -0.549763
     76 H29        -3.0680   -3.1830    1.4990 hn        1 MOL      0.190347
     77 H30        -1.1240   -4.5630    3.5050 h1        1 MOL      0.132454
     78 H31        -0.0160   -5.5780    1.7980 h1        1 MOL      0.020651
     79 H32        -1.0050   -5.6260   -0.3520 ho        1 MOL      0.417222
     80 H33        -2.2430   -6.6270    2.9820 hc        1 MOL      0.140934
     81 H34        -3.0910   -6.0240    1.5200 hc        1 MOL      0.140934
     82 H35        -1.9440   -7.2810    1.4080 hc        1 MOL      0.140934
     83 N9          1.0150   -3.2840    2.8220 n         1 MOL     -0.579423
     84 C26         2.2510   -2.6700    2.3720 c3        1 MOL      0.005964
     85 C27         2.6480   -3.2450    0.9590 c         1 MOL      0.552996
     86 O15         2.7610   -4.4520    0.8430 o         1 MOL     -0.583175
     87 C28         3.3350   -2.9850    3.3930 c3        1 MOL      0.280507
     88 C29         4.7100   -2.4100    3.0890 c3        1 MOL      0.189445
     89 C30         3.0510   -2.5480    4.8550 c3        1 MOL     -0.359809
     90 C31         5.8860   -2.6090    4.0270 c3        1 MOL     -0.180410
     91 H36         1.0520   -3.9670    3.5680 hn        1 MOL      0.306944
     92 H37         2.2200   -1.5880    2.3740 h1        1 MOL      0.132066
     93 H38         3.5130   -4.0560    3.2810 hc        1 MOL     -0.074505
     94 H39         4.5570   -1.3260    3.0100 hc        1 MOL     -0.106314
     95 H40         4.8800   -2.5970    2.0360 hc        1 MOL     -0.106314
     96 H41         3.7640   -2.9590    5.5690 hc        1 MOL      0.073318
     97 H42         2.8150   -1.4870    4.9250 hc        1 MOL      0.073318
     98 H43         2.1130   -3.0490    5.1100 hc        1 MOL      0.073318
     99 H44         5.9130   -3.6290    4.4150 hc        1 MOL      0.037005
    100 H45         6.7560   -2.4380    3.3980 hc        1 MOL      0.037005
    101 H46         5.8890   -1.9680    4.9100 hc        1 MOL      0.037005
    102 N10         2.8540   -2.3650    0.0100 n         1 MOL     -0.018844
    103 C32         3.2160   -2.6890   -1.3360 c3        1 MOL     -0.020892
    104 C33         4.5830   -2.1610   -1.7300 c         1 MOL      0.365518
    105 O16         5.2090   -2.7040   -2.6890 o         1 MOL     -0.552024
    106 C34         2.1490   -2.3350   -2.3560 c3        1 MOL     -0.101085
    107 C35         0.7710   -2.9680   -2.0350 c         1 MOL      0.659187
    108 O17         0.6650   -4.2160   -2.0890 o         1 MOL     -0.707902
    109 O18        -0.1930   -2.2390   -1.6670 o         1 MOL     -0.707902
    110 H47         2.6410   -1.3840    0.1890 hn        1 MOL     -0.002276
    111 H48         3.3590   -3.7740   -1.3400 h1        1 MOL      0.079925
    112 H49         2.5300   -2.6610   -3.3340 hc        1 MOL      0.042783
    113 H50         2.0760   -1.2560   -2.4300 hc        1 MOL      0.042783
    114 N11         5.1130   -1.1720   -1.0590 n         1 MOL     -0.418165
    115 C36         6.4640   -0.4980   -1.2580 c3        1 MOL      0.468615
    116 C37         6.4760    1.0560   -0.8850 c         1 MOL      0.144795
    117 O19         7.2320    1.5350   -0.0440 o         1 MOL     -0.428193
    118 C38         7.5140   -1.3090   -0.5380 c3        1 MOL     -0.425741
    119 C39         8.8490   -1.1850   -1.2820 ca        1 MOL      0.072594
    120 C40         9.7320   -0.1700   -1.0580 ca        1 MOL     -0.078635
    121 C41         9.2640   -2.1630   -2.2460 ca        1 MOL     -0.078635
    122 C42        10.9840   -0.0720   -1.6630 ca        1 MOL     -0.195997
    123 C43        10.4870   -2.0270   -2.8850 ca        1 MOL     -0.195997
    124 C44        11.3200   -0.9510   -2.6720 ca        1 MOL     -0.051078
    125 H51         4.4660   -0.7650   -0.3950 hn        1 MOL      0.276872
    126 H52         6.7110   -0.4920   -2.3240 h1        1 MOL     -0.011707
    127 H53         7.3100   -2.3720   -0.6120 hc        1 MOL      0.151012
    128 H54         7.5590   -1.0090    0.5150 hc        1 MOL      0.151012
    129 H55         9.3750    0.6020   -0.3940 ha        1 MOL      0.097069
    130 H56         8.5870   -2.9810   -2.4440 ha        1 MOL      0.097069
    131 H57        11.6600    0.7700   -1.5980 ha        1 MOL      0.106880
    132 H58        10.8380   -2.7510   -3.6060 ha        1 MOL      0.106880
    133 H59        12.2060   -0.8510   -3.2790 ha        1 MOL      0.082156
    134 N12         5.5040    1.8430   -1.5200 n         1 MOL      0.085294
    135 C45         5.4310    3.3020   -1.3530 c3        1 MOL     -0.071563
    136 C46         5.0510    3.7750    0.0190 c         1 MOL      0.267265
    137 O20         5.3840    4.8600    0.5130 o         1 MOL     -0.501013
    138 C47         4.3410    3.7800   -2.3300 c3        1 MOL     -0.089010
    139 C48         4.5090    2.7700   -3.5080 c3        1 MOL     -0.199124
    140 C49         4.7340    1.4520   -2.7240 c3        1 MOL     -0.157772
    141 H60         6.3960    3.7150   -1.6320 h1        1 MOL      0.082319
    142 H61         3.3280    3.7510   -1.9310 hc        1 MOL      0.088797
    143 H62         4.4820    4.8150   -2.6490 hc        1 MOL      0.088797
    144 H63         3.6240    2.7780   -4.1610 hc        1 MOL      0.081030
    145 H64         5.4550    2.8410   -4.0600 hc        1 MOL      0.081030
    146 H65         3.7410    1.1430   -2.3950 h1        1 MOL      0.137545
    147 H66         5.2000    0.6910   -3.3430 h1        1 MOL      0.137545
    148 N13         4.3570    2.8840    0.7540 n         1 MOL      0.012388
    149 C50         3.9190    3.1150    2.1650 c3        1 MOL     -0.368098
    150 C51         5.1690    3.1150    3.0360 c         1 MOL      0.633008
    151 O21         5.1990    4.0460    3.8730 o         1 MOL     -0.565880
    152 C52         2.9000    2.0460    2.6000 c3        1 MOL      0.104167
    153 C53         1.7740    1.8840    1.5550 c3        1 MOL     -0.092115
    154 C54         2.1000    0.8180    0.5190 c         1 MOL      0.669412
    155 O22         1.1820    0.3200   -0.1060 o         1 MOL     -0.682124
    156 O23         3.2920    0.4740    0.2870 o         1 MOL     -0.682124
    157 H67         4.0460    2.0450    0.2800 hn        1 MOL      0.134179
    158 H68         3.3400    4.0390    2.2450 h1        1 MOL      0.167163
    159 H69         2.4310    2.3670    3.5310 hc        1 MOL     -0.018195
    160 H70         3.3960    1.0860    2.7350 hc        1 MOL     -0.018195
    161 H71         1.6130    2.8560    1.0900 hc        1 MOL      0.035790
    162 H72         0.8390    1.6130    2.0540 hc        1 MOL      0.035790
    163 N14         6.2040    2.1960    2.9080 n         1 MOL     -0.351476
    164 C55         7.5130    2.2230    3.4810 c3        1 MOL     -0.070512
    165 H73         7.5770    3.0370    4.2040 h1        1 MOL      0.056160
    166 H74         7.7110    1.2760    3.9830 h1        1 MOL      0.056160
    167 H75         8.2510    2.3780    2.6940 h1        1 MOL      0.056160
    168 H76         6.0370    1.6490    2.0810 hn        1 MOL      0.277169
    169 Ca1        -1.1400   -0.2380   -0.3990 Ca        1 MOL      1.816437
    170 O24        -1.1670    2.3110    0.0020 oh        1 MOL     -0.885270
    171 H77        -0.6040    2.9470   -0.4320 ho        1 MOL      0.416207
    172 H78        -1.9360    2.8080    0.2640 ho        1 MOL      0.416207
    173 O25        -2.5520   -2.6650   -0.4520 oh        1 MOL     -0.885270
    174 H79        -1.9610   -3.3880   -0.2370 ho        1 MOL      0.416207
    175 H80        -2.9510   -2.9080   -1.2810 ho        1 MOL      0.416207
    176 O26        -3.1530    0.4140    1.4070 oh        1 MOL     -0.885270
    177 H81        -3.9490    0.0340    1.7800 ho        1 MOL      0.416207
    178 H82        -3.3350    1.3490    1.3410 ho        1 MOL      0.416207
@<TRIPOS>BOND
     1    1    2 1   
     2    1    4 1   
     3    1    5 1   
     4    1    6 1   
     5    2    3 2   
     6    2    7 1   
     7    7    8 1   
     8    7   15 1   
     9    8    9 1   
    10    8   11 1   
    11    8   16 1   
    12    9   10 2   
    13    9   19 1   
    14   11   12 1   
    15   11   17 1   
    16   11   18 1   
    17   12   13 1   
    18   12   14 1   
    19   19   20 1   
    20   19   24 1   
    21   20   21 1   
    22   20   23 1   
    23   20   25 1   
    24   21   22 2   
    25   21   29 1   
    26   23   26 1   
    27   23   27 1   
    28   23   28 1   
    29   29   30 1   
    30   29   37 1   
    31   30   31 1   
    32   30   33 1   
    33   30   38 1   
    34   31   32 2   
    35   31   41 1   
    36   33   34 1   
    37   33   39 1   
    38   33   40 1   
    39   34   35 1   
    40   34   36 1   
    41   41   42 1   
    42   41   45 1   
    43   42   43 1   
    44   42   46 1   
    45   42   47 1   
    46   43   44 2   
    47   43   48 1   
    48   48   49 1   
    49   48   56 1   
    50   49   50 1   
    51   49   52 1   
    52   49   57 1   
    53   50   51 2   
    54   50   62 1   
    55   52   53 1   
    56   52   58 1   
    57   52   59 1   
    58   53   54 1   
    59   53   55 2   
    60   54   60 1   
    61   54   61 1   
    62   62   63 1   
    63   62   66 1   
    64   63   64 1   
    65   63   67 1   
    66   63   68 1   
    67   64   65 2   
    68   64   69 1   
    69   69   70 1   
    70   69   76 1   
    71   70   71 1   
    72   70   73 1   
    73   70   77 1   
    74   71   72 2   
    75   71   83 1   
    76   73   74 1   
    77   73   75 1   
    78   73   78 1   
    79   74   80 1   
    80   74   81 1   
    81   74   82 1   
    82   75   79 1   
    83   83   84 1   
    84   83   91 1   
    85   84   85 1   
    86   84   87 1   
    87   84   92 1   
    88   85   86 2   
    89   85  102 1   
    90   87   88 1   
    91   87   89 1   
    92   87   93 1   
    93   88   90 1   
    94   88   94 1   
    95   88   95 1   
    96   89   96 1   
    97   89   97 1   
    98   89   98 1   
    99   90   99 1   
   100   90  100 1   
   101   90  101 1   
   102  102  103 1   
   103  102  110 1   
   104  103  104 1   
   105  103  106 1   
   106  103  111 1   
   107  104  105 2   
   108  104  114 1   
   109  106  107 1   
   110  106  112 1   
   111  106  113 1   
   112  107  108 1   
   113  107  109 1   
   114  114  115 1   
   115  114  125 1   
   116  115  116 1   
   117  115  118 1   
   118  115  126 1   
   119  116  117 2   
   120  116  134 1   
   121  118  119 1   
   122  118  127 1   
   123  118  128 1   
   124  119  120 ar  
   125  119  121 ar  
   126  120  122 ar  
   127  120  129 1   
   128  121  123 ar  
   129  121  130 1   
   130  122  124 ar  
   131  122  131 1   
   132  123  124 ar  
   133  123  132 1   
   134  124  133 1   
   135  134  135 1   
   136  134  140 1   
   137  135  136 1   
   138  135  138 1   
   139  135  141 1   
   140  136  137 2   
   141  136  148 1   
   142  138  139 1   
   143  138  142 1   
   144  138  143 1   
   145  139  140 1   
   146  139  144 1   
   147  139  145 1   
   148  140  146 1   
   149  140  147 1   
   150  148  149 1   
   151  148  157 1   
   152  149  150 1   
   153  149  152 1   
   154  149  158 1   
   155  150  151 2   
   156  150  163 1   
   157  152  153 1   
   158  152  159 1   
   159  152  160 1   
   160  153  154 1   
   161  153  161 1   
   162  153  162 1   
   163  154  155 1   
   164  154  156 1   
   165  163  164 1   
   166  163  168 1   
   167  164  165 1   
   168  164  166 1   
   169  164  167 1   
   170  170  171 1   
   171  170  172 1   
   172  173  174 1   
   173  173  175 1   
   174  176  177 1   
   175  176  178 1   
@<TRIPOS>SUBSTRUCTURE
     1 MOL         1 TEMP              0 ****  ****    0 ROOT
