@<TRIPOS>MOLECULE
MOL
  189   185     1     0     0
SMALL
resp


@<TRIPOS>ATOM
      1 C1          9.0270   -1.2320    2.9260 c3        1 MOL     -0.502989
      2 C2          8.0330   -1.0390    1.7860 c         1 MOL      0.853939
      3 O1          6.8440   -1.2260    2.0550 o         1 MOL     -0.658758
      4 H1          8.6620   -2.0090    3.5980 hc        1 MOL      0.124736
      5 H2          9.9940   -1.5290    2.5190 hc        1 MOL      0.124736
      6 H3          9.1350   -0.2980    3.4770 hc        1 MOL      0.124736
      7 N1          8.4280   -0.8540    0.5380 n         1 MOL     -0.610440
      8 C3          7.6120   -0.4100   -0.5760 c3        1 MOL      0.049911
      9 C4          7.0000   -1.5210   -1.4420 c         1 MOL      0.310120
     10 O2          6.8430   -1.5250   -2.6990 o         1 MOL     -0.457381
     11 C5          8.2360    0.6760   -1.5370 c3        1 MOL     -0.077933
     12 C6          9.3470    1.4600   -0.9550 c         1 MOL      0.707423
     13 O3          9.0170    2.1690    0.0010 o         1 MOL     -0.671987
     14 O4         10.4210    1.5670   -1.5950 o         1 MOL     -0.671987
     15 H4          9.3970   -0.8550    0.2310 hn        1 MOL      0.300051
     16 H5          6.7870    0.1520   -0.1390 h1        1 MOL      0.056126
     17 H6          7.5500    1.4740   -1.8000 hc        1 MOL      0.054296
     18 H7          8.6530    0.3680   -2.4960 hc        1 MOL      0.054296
     19 N2          6.6240   -2.5800   -0.7320 n         1 MOL     -0.115828
     20 C7          5.8850   -3.7580   -1.2120 c3        1 MOL     -0.076527
     21 C8          4.4950   -3.4800   -1.8790 c         1 MOL      0.633811
     22 O5          4.2490   -3.9490   -2.9540 o         1 MOL     -0.533544
     23 C9          5.8390   -4.6710   -0.0370 c3        1 MOL     -0.292510
     24 C10         7.1910   -5.3560    0.0460 c3        1 MOL      0.444667
     25 C11         7.2220   -6.2360    1.2830 c3        1 MOL     -0.305246
     26 C12         8.7000   -6.6490    1.5540 c3        1 MOL      0.193724
     27 N3          8.7110   -7.6300    2.6140 n4        1 MOL     -0.277583
     28 H8          6.7900   -2.5210    0.2700 hn        1 MOL      0.164067
     29 H9          6.4450   -4.1540   -2.0600 h1        1 MOL      0.079127
     30 H10         5.0790   -5.4320   -0.2120 hc        1 MOL      0.083576
     31 H11         5.6110   -4.1590    0.8910 hc        1 MOL      0.083576
     32 H12         7.9490   -4.5870    0.1290 hc        1 MOL     -0.078977
     33 H13         7.4320   -5.8410   -0.9060 hc        1 MOL     -0.078977
     34 H14         6.5420   -7.0780    1.1260 hc        1 MOL      0.073465
     35 H15         6.9050   -5.6240    2.1360 hc        1 MOL      0.073465
     36 H16         9.2770   -5.7880    1.8730 hx        1 MOL      0.034018
     37 H17         9.1660   -7.0580    0.6590 hx        1 MOL      0.034018
     38 H18         8.2760   -8.4990    2.3570 hn        1 MOL      0.299806
     39 H19         9.6230   -7.8520    2.9920 hn        1 MOL      0.299806
     40 H20         8.1130   -7.2510    3.3320 hn        1 MOL      0.299806
     41 N4          3.5190   -2.7600   -1.2270 n         1 MOL     -0.629528
     42 C13         3.6070   -1.8470   -0.1120 c3        1 MOL      0.354884
     43 C14         3.9110   -0.3820   -0.4890 c         1 MOL      0.483396
     44 O6          4.2730   -0.0390   -1.5840 o         1 MOL     -0.424506
     45 C15         2.3010   -1.9790    0.6230 c3        1 MOL     -0.685789
     46 C16         1.0610   -1.8690   -0.2930 c         1 MOL      0.915777
     47 O7          0.9530   -0.8720   -1.0140 o         1 MOL     -0.742702
     48 O8          0.1550   -2.7440   -0.1270 o         1 MOL     -0.742702
     49 H21         2.6320   -2.8350   -1.7160 hn        1 MOL      0.368542
     50 H22         4.4030   -2.1750    0.5670 h1        1 MOL      0.029884
     51 H23         2.2780   -1.2780    1.4530 hc        1 MOL      0.153751
     52 H24         2.3150   -2.8910    1.2130 hc        1 MOL      0.153751
     53 N5          3.8640    0.4610    0.5420 n         1 MOL     -0.378927
     54 C17         4.0700    1.8910    0.3940 c3        1 MOL      0.152925
     55 C18         2.8820    2.7740   -0.1400 c         1 MOL      0.470058
     56 O9          1.7310    2.3830    0.0150 o         1 MOL     -0.606705
     57 H25         3.5520    0.1630    1.4630 hn        1 MOL      0.208247
     58 H26         4.8910    2.0120   -0.3060 h1        1 MOL      0.041366
     59 H27         4.4520    2.3580    1.3020 h1        1 MOL      0.041366
     60 N6          3.1540    3.8700   -0.8180 n         1 MOL     -0.546464
     61 C19         2.0940    4.7340   -1.3560 c3        1 MOL      0.557917
     62 C20         2.3930    6.2430   -1.1870 c         1 MOL      0.244892
     63 O10         3.5550    6.6890   -1.2520 o         1 MOL     -0.508058
     64 C21         1.9700    4.4660   -2.9030 c3        1 MOL     -0.170181
     65 C22         2.0940    2.9500   -3.3640 c         1 MOL      0.604595
     66 O11         2.9590    2.6450   -4.2460 o         1 MOL     -0.585871
     67 O12         1.4440    2.0520   -2.7330 o         1 MOL     -0.585871
     68 H28         4.1270    4.1310   -0.9100 hn        1 MOL      0.306445
     69 H29         1.1990    4.4760   -0.7930 h1        1 MOL     -0.011086
     70 H30         2.7700    4.9710   -3.4330 hc        1 MOL      0.016624
     71 H31         1.0260    4.8820   -3.2430 hc        1 MOL      0.016624
     72 N7          1.4270    7.0800   -0.9910 n         1 MOL     -0.322928
     73 C23        -0.0150    6.8430   -0.8120 c3        1 MOL     -0.117866
     74 C24        -0.2620    6.3770    0.5920 c         1 MOL      0.539208
     75 O13         0.4880    6.7290    1.5200 o         1 MOL     -0.509752
     76 H32         1.6680    8.0640   -0.9400 hn        1 MOL      0.304508
     77 H33        -0.4010    6.1600   -1.5660 h1        1 MOL      0.069433
     78 H34        -0.5160    7.7860   -1.0190 h1        1 MOL      0.069433
     79 N8         -1.2880    5.5890    0.7410 n         1 MOL     -0.408162
     80 C25        -1.6500    4.8530    1.9780 c3        1 MOL      0.066313
     81 C26        -1.3250    3.3010    1.9150 c         1 MOL      0.503314
     82 O14        -0.9260    2.8810    0.8800 o         1 MOL     -0.427937
     83 C27        -3.1370    5.1180    2.2990 c3        1 MOL      0.280845
     84 C28        -3.4940    6.5730    2.4170 c3        1 MOL     -0.239037
     85 O15        -3.3770    4.5260    3.5600 oh        1 MOL     -0.588430
     86 H35        -1.7100    5.2470   -0.1080 hn        1 MOL      0.209338
     87 H36        -1.0640    5.2890    2.7840 h1        1 MOL      0.050056
     88 H37        -3.8620    4.6610    1.6320 h1        1 MOL      0.040317
     89 H38        -3.0140    5.2530    4.0770 ho        1 MOL      0.362428
     90 H39        -4.4880    6.8090    2.7950 hc        1 MOL      0.067126
     91 H40        -2.7660    6.9610    3.1360 hc        1 MOL      0.067126
     92 H41        -3.3800    7.0540    1.4450 hc        1 MOL      0.067126
     93 N9         -1.4090    2.6290    3.0480 n         1 MOL     -0.476297
     94 C29        -0.9220    1.2730    3.3700 c3        1 MOL      0.008525
     95 C30        -1.2890    0.2160    2.3440 c         1 MOL      0.254202
     96 O16        -0.7620    0.1390    1.3000 o         1 MOL     -0.333333
     97 C31         0.6450    1.2490    3.4670 c3        1 MOL      0.310616
     98 C32         1.1160    2.4400    4.3140 c3        1 MOL     -0.136989
     99 C33         1.1580   -0.1060    3.9460 c3        1 MOL     -0.540392
    100 C34         2.6380    2.4930    4.5610 c3        1 MOL     -0.163570
    101 H42        -1.8640    3.1580    3.7910 hn        1 MOL      0.273136
    102 H43        -1.2000    0.9090    4.3540 h1        1 MOL      0.062164
    103 H44         0.9900    1.3830    2.4440 hc        1 MOL      0.000068
    104 H45         0.4790    2.4960    5.2050 hc        1 MOL      0.037001
    105 H46         0.9230    3.3650    3.7690 hc        1 MOL      0.037001
    106 H47         2.1010   -0.3950    3.4880 hc        1 MOL      0.138809
    107 H48         1.4560   -0.2690    4.9860 hc        1 MOL      0.138809
    108 H49         0.4690   -0.9320    3.7420 hc        1 MOL      0.138809
    109 H50         3.0100    1.5750    5.0260 hc        1 MOL      0.053346
    110 H51         2.9960    2.5000    3.5300 hc        1 MOL      0.053346
    111 H52         2.9820    3.3550    5.1290 hc        1 MOL      0.053346
    112 N10        -2.2470   -0.6550    2.7300 n         1 MOL     -0.159509
    113 C35        -2.5030   -1.9410    2.0540 c3        1 MOL     -0.792836
    114 C36        -4.0060   -2.2200    1.8120 c         1 MOL      0.690178
    115 O17        -4.3200   -3.0960    0.9990 o         1 MOL     -0.594696
    116 C37        -1.7190   -3.2270    2.4830 c3        1 MOL      0.753558
    117 C38        -2.1540   -3.7250    3.8440 c3        1 MOL     -0.285027
    118 O18        -0.3600   -3.0210    2.3780 oh        1 MOL     -0.727854
    119 H53        -2.5910   -0.5420    3.6720 hn        1 MOL      0.240998
    120 H54        -2.2120   -1.7650    1.0230 h1        1 MOL      0.366298
    121 H55        -1.8130   -4.0910    1.8320 h1        1 MOL     -0.055673
    122 H56        -0.1220   -2.8210    1.4680 ho        1 MOL      0.406449
    123 H57        -2.4450   -2.9590    4.5570 hc        1 MOL      0.053165
    124 H58        -2.9850   -4.4150    3.6800 hc        1 MOL      0.053165
    125 H59        -1.3630   -4.2100    4.4130 hc        1 MOL      0.053165
    126 N11        -4.8950   -1.4320    2.3700 n         1 MOL     -0.213134
    127 C39        -6.3410   -1.5170    2.1250 c3        1 MOL     -0.608969
    128 C40        -6.7180   -1.3190    0.6980 c         1 MOL      0.709729
    129 O19        -6.5550   -0.1860    0.2290 o         1 MOL     -0.534295
    130 C41        -7.0440   -0.4340    3.0780 c3        1 MOL      0.401681
    131 C42        -8.5510   -0.5060    3.0240 c3        1 MOL     -0.407774
    132 O20        -6.6940   -0.8060    4.4300 oh        1 MOL     -0.616996
    133 H60        -4.6010   -0.6210    2.8910 hn        1 MOL      0.243687
    134 H61        -6.6500   -2.4620    2.5670 h1        1 MOL      0.190128
    135 H62        -6.7750    0.5980    2.8510 h1        1 MOL      0.092554
    136 H63        -7.2340   -1.5570    4.7000 ho        1 MOL      0.400562
    137 H64        -8.9790   -1.5070    2.9150 hc        1 MOL      0.109198
    138 H65        -8.9730    0.0120    3.8900 hc        1 MOL      0.109198
    139 H66        -8.9190   -0.0140    2.1160 hc        1 MOL      0.109198
    140 N12        -7.0760   -2.3880   -0.0170 n         1 MOL     -0.272756
    141 C43        -7.5340   -2.1910   -1.4340 c3        1 MOL      0.023673
    142 C44        -6.3490   -1.6010   -2.2600 c         1 MOL      0.580731
    143 O21        -6.5050   -0.6460   -3.0260 o         1 MOL     -0.540202
    144 C45        -8.8700   -1.4920   -1.7110 c3        1 MOL     -0.307817
    145 C46        -9.9610   -2.2630   -0.9290 c3        1 MOL      0.301243
    146 C47       -11.4030   -1.7780   -1.3140 c3        1 MOL     -0.018985
    147 C48       -12.4160   -2.6460   -0.5300 c3        1 MOL      0.013890
    148 N13       -12.7750   -3.8770   -1.2010 n4        1 MOL     -0.337343
    149 H67        -7.3400   -3.2830    0.3780 hn        1 MOL      0.215427
    150 H68        -7.5400   -3.2020   -1.8580 h1        1 MOL      0.066391
    151 H69        -9.1450   -1.5950   -2.7590 hc        1 MOL      0.104791
    152 H70        -8.8540   -0.4590   -1.3650 hc        1 MOL      0.104791
    153 H71        -9.8330   -2.1260    0.1480 hc        1 MOL     -0.107156
    154 H72        -9.8250   -3.3000   -1.2340 hc        1 MOL     -0.107156
    155 H73       -11.5240   -1.8650   -2.3870 hc        1 MOL      0.038460
    156 H74       -11.4370   -0.7300   -1.0270 hc        1 MOL      0.038460
    157 H75       -13.1850   -1.9480   -0.1870 hx        1 MOL      0.065774
    158 H76       -12.0670   -2.9290    0.4630 hx        1 MOL      0.065774
    159 H77       -13.2320   -3.6650   -2.0800 hn        1 MOL      0.225237
    160 H78       -11.8870   -4.3440   -1.3580 hn        1 MOL      0.225237
    161 H79       -13.3650   -4.4780   -0.6350 hn        1 MOL      0.225237
    162 N14        -5.1870   -2.1480   -2.0840 n         1 MOL     -0.513864
    163 C49        -3.9480   -1.5320   -2.6400 c3        1 MOL      0.069048
    164 C50        -2.6980   -1.7720   -1.7850 c         1 MOL      0.491631
    165 O22        -2.0490   -0.8520   -1.3850 o         1 MOL     -0.607819
    166 C51        -3.6630   -1.6950   -4.1830 c3        1 MOL     -0.315568
    167 C52        -2.2220   -1.3270   -4.6150 c3        1 MOL     -0.143893
    168 C53        -1.9790    0.1700   -4.5860 c         1 MOL      0.691555
    169 O23        -1.1720    0.6800   -3.7870 o         1 MOL     -0.671852
    170 O24        -2.3500    0.8100   -5.5950 o         1 MOL     -0.671852
    171 H80        -5.1420   -2.6900   -1.2350 hn        1 MOL      0.265472
    172 H81        -4.1260   -0.4710   -2.4640 h1        1 MOL      0.114921
    173 H82        -4.2470   -1.0240   -4.8090 hc        1 MOL      0.112979
    174 H83        -3.7680   -2.7240   -4.4980 hc        1 MOL      0.112979
    175 H84        -2.1630   -1.6520   -5.6550 hc        1 MOL      0.070759
    176 H85        -1.4490   -1.8050   -4.0240 hc        1 MOL      0.070759
    177 N15        -2.2640   -2.9670   -1.3410 n         1 MOL     -0.252365
    178 C54        -2.6220   -4.2500   -2.0490 c3        1 MOL     -0.241333
    179 H86        -2.3850   -4.1580   -3.1080 h1        1 MOL      0.088525
    180 H87        -2.0500   -5.0730   -1.6200 h1        1 MOL      0.088525
    181 H88        -3.6870   -4.4460   -1.9300 h1        1 MOL      0.088525
    182 H89        -1.4530   -2.8820   -0.7450 hn        1 MOL      0.343007
    183 Ca1        -0.5000    1.3590   -1.2640 Ca        1 MOL      1.651291
    184 O25        -1.3100    3.5510   -2.5670 oh        1 MOL     -0.896969
    185 H90        -1.8980    4.2540   -2.2940 ho        1 MOL      0.430578
    186 H91        -1.4670    3.4600   -3.5050 ho        1 MOL      0.430578
    187 O26        -3.0840    1.8600   -0.6170 oh        1 MOL     -0.896969
    188 H92        -3.7610    2.0930   -1.2510 ho        1 MOL      0.430578
    189 H93        -3.5760    1.6090    0.1710 ho        1 MOL      0.430578
@<TRIPOS>BOND
     1    1    2 1   
     2    1    4 1   
     3    1    5 1   
     4    1    6 1   
     5    2    3 2   
     6    2    7 1   
     7    7    8 1   
     8    7   15 1   
     9    8    9 1   
    10    8   11 1   
    11    8   16 1   
    12    9   10 2   
    13    9   19 1   
    14   11   12 1   
    15   11   17 1   
    16   11   18 1   
    17   12   13 1   
    18   12   14 1   
    19   19   20 1   
    20   19   28 1   
    21   20   21 1   
    22   20   23 1   
    23   20   29 1   
    24   21   22 2   
    25   21   41 1   
    26   23   24 1   
    27   23   30 1   
    28   23   31 1   
    29   24   25 1   
    30   24   32 1   
    31   24   33 1   
    32   25   26 1   
    33   25   34 1   
    34   25   35 1   
    35   26   27 1   
    36   26   36 1   
    37   26   37 1   
    38   27   38 1   
    39   27   39 1   
    40   27   40 1   
    41   41   42 1   
    42   41   49 1   
    43   42   43 1   
    44   42   45 1   
    45   42   50 1   
    46   43   44 2   
    47   43   53 1   
    48   45   46 1   
    49   45   51 1   
    50   45   52 1   
    51   46   47 1   
    52   46   48 1   
    53   53   54 1   
    54   53   57 1   
    55   54   55 1   
    56   54   58 1   
    57   54   59 1   
    58   55   56 2   
    59   55   60 1   
    60   60   61 1   
    61   60   68 1   
    62   61   62 1   
    63   61   64 1   
    64   61   69 1   
    65   62   63 2   
    66   62   72 1   
    67   64   65 1   
    68   64   70 1   
    69   64   71 1   
    70   65   66 1   
    71   65   67 1   
    72   72   73 1   
    73   72   76 1   
    74   73   74 1   
    75   73   77 1   
    76   73   78 1   
    77   74   75 2   
    78   74   79 1   
    79   79   80 1   
    80   79   86 1   
    81   80   81 1   
    82   80   83 1   
    83   80   87 1   
    84   81   82 2   
    85   81   93 1   
    86   83   84 1   
    87   83   85 1   
    88   83   88 1   
    89   84   90 1   
    90   84   91 1   
    91   84   92 1   
    92   85   89 1   
    93   93   94 1   
    94   93  101 1   
    95   94   95 1   
    96   94   97 1   
    97   94  102 1   
    98   95   96 2   
    99   95  112 1   
   100   97   98 1   
   101   97   99 1   
   102   97  103 1   
   103   98  100 1   
   104   98  104 1   
   105   98  105 1   
   106   99  106 1   
   107   99  107 1   
   108   99  108 1   
   109  100  109 1   
   110  100  110 1   
   111  100  111 1   
   112  112  113 1   
   113  112  119 1   
   114  113  114 1   
   115  113  116 1   
   116  113  120 1   
   117  114  115 2   
   118  114  126 1   
   119  116  117 1   
   120  116  118 1   
   121  116  121 1   
   122  117  123 1   
   123  117  124 1   
   124  117  125 1   
   125  118  122 1   
   126  126  127 1   
   127  126  133 1   
   128  127  128 1   
   129  127  130 1   
   130  127  134 1   
   131  128  129 2   
   132  128  140 1   
   133  130  131 1   
   134  130  132 1   
   135  130  135 1   
   136  131  137 1   
   137  131  138 1   
   138  131  139 1   
   139  132  136 1   
   140  140  141 1   
   141  140  149 1   
   142  141  142 1   
   143  141  144 1   
   144  141  150 1   
   145  142  143 2   
   146  142  162 1   
   147  144  145 1   
   148  144  151 1   
   149  144  152 1   
   150  145  146 1   
   151  145  153 1   
   152  145  154 1   
   153  146  147 1   
   154  146  155 1   
   155  146  156 1   
   156  147  148 1   
   157  147  157 1   
   158  147  158 1   
   159  148  159 1   
   160  148  160 1   
   161  148  161 1   
   162  162  163 1   
   163  162  171 1   
   164  163  164 1   
   165  163  166 1   
   166  163  172 1   
   167  164  165 2   
   168  164  177 1   
   169  166  167 1   
   170  166  173 1   
   171  166  174 1   
   172  167  168 1   
   173  167  175 1   
   174  167  176 1   
   175  168  169 1   
   176  168  170 1   
   177  177  178 1   
   178  177  182 1   
   179  178  179 1   
   180  178  180 1   
   181  178  181 1   
   182  184  185 1   
   183  184  186 1   
   184  187  188 1   
   185  187  189 1   
@<TRIPOS>SUBSTRUCTURE
     1 MOL         1 TEMP              0 ****  ****    0 ROOT
