@<TRIPOS>MOLECULE
MOL
  181   177     1     0     0
SMALL
resp


@<TRIPOS>ATOM
      1 C1          2.8150   -2.9510    3.7720 c3        1 MOL     -0.614659
      2 C2          4.2130   -2.3640    3.6030 c         1 MOL      0.643481
      3 O1          4.6440   -1.2270    3.9560 o         1 MOL     -0.583786
      4 H1          2.6960   -3.3150    4.7930 hc        1 MOL      0.176860
      5 H2          2.0690   -2.1820    3.5720 hc        1 MOL      0.176860
      6 H3          2.6810   -3.7780    3.0750 hc        1 MOL      0.176860
      7 N1          5.1050   -3.2420    3.1440 n         1 MOL     -0.386676
      8 C3          6.4630   -2.9210    2.7450 c3        1 MOL      0.064166
      9 C4          6.5470   -2.6080    1.2240 c         1 MOL      0.558415
     10 O2          5.9660   -3.3080    0.4190 o         1 MOL     -0.558409
     11 C5          7.4880   -3.9320    3.1830 c3        1 MOL     -0.059729
     12 C6          8.8250   -3.3440    3.5810 c         1 MOL      0.741961
     13 O3          9.5900   -3.0600    2.6800 o         1 MOL     -0.747265
     14 O4          9.1420   -3.3080    4.7700 o         1 MOL     -0.747265
     15 H4          4.8600   -4.1890    2.8930 hn        1 MOL      0.236733
     16 H5          6.8340   -2.0310    3.2430 h1        1 MOL      0.064009
     17 H6          7.6650   -4.7460    2.4760 hc        1 MOL     -0.026551
     18 H7          7.0220   -4.3990    4.0460 hc        1 MOL     -0.026551
     19 N2          7.2410   -1.5940    0.8100 n         1 MOL     -0.599769
     20 C7          7.4250   -1.2520   -0.5830 c3        1 MOL      0.487461
     21 C8          6.0530   -0.6420   -1.0200 c         1 MOL      0.247771
     22 O5          5.2870   -0.0570   -0.3040 o         1 MOL     -0.476523
     23 C9          8.6100   -0.3230   -0.8650 c3        1 MOL     -0.351172
     24 H8          7.7020   -0.9640    1.4600 hn        1 MOL      0.319526
     25 H9          7.5990   -2.1850   -1.1250 h1        1 MOL      0.023461
     26 H10         8.8130   -0.3140   -1.9410 hc        1 MOL      0.083196
     27 H11         8.4240    0.7010   -0.5640 hc        1 MOL      0.083196
     28 H12         9.4690   -0.7670   -0.3620 hc        1 MOL      0.083196
     29 N3          5.7640   -0.7530   -2.3120 n         1 MOL     -0.479468
     30 C10         4.5910   -0.1530   -3.0570 c3        1 MOL      0.293757
     31 C11         4.8780    1.2940   -3.4550 c         1 MOL      0.427047
     32 O6          4.4060    1.8010   -4.5190 o         1 MOL     -0.528826
     33 C12         4.1190   -1.0360   -4.1950 c3        1 MOL     -0.397660
     34 C13         3.8170   -2.4750   -3.7070 c         1 MOL      0.814102
     35 O7          4.7100   -3.3900   -3.7900 o         1 MOL     -0.741628
     36 O8          2.7150   -2.6050   -3.1100 o         1 MOL     -0.741628
     37 H13         6.4880   -1.1980   -2.8470 hn        1 MOL      0.286494
     38 H14         3.7590   -0.1330   -2.3440 h1        1 MOL      0.062643
     39 H15         4.9390   -1.1940   -4.8910 hc        1 MOL      0.097407
     40 H16         3.1810   -0.6380   -4.5850 hc        1 MOL      0.097407
     41 N4          5.7990    1.9860   -2.7790 n         1 MOL     -0.438368
     42 C14         6.1520    3.3910   -3.0040 c3        1 MOL      0.030701
     43 C15         5.1700    4.5450   -2.5930 c         1 MOL      0.460257
     44 O9          5.5670    5.5060   -1.9250 o         1 MOL     -0.519113
     45 H17         6.0530    1.6180   -1.8740 hn        1 MOL      0.320284
     46 H18         6.4510    3.4850   -4.0500 h1        1 MOL      0.061483
     47 H19         7.0420    3.6690   -2.4420 h1        1 MOL      0.061483
     48 N5          3.9140    4.5010   -3.0440 n         1 MOL     -0.379529
     49 C16         3.0580    5.7090   -2.8860 c3        1 MOL      0.002736
     50 C17         2.7200    6.2300   -1.4570 c         1 MOL      0.533887
     51 O10         2.4830    7.4150   -1.2870 o         1 MOL     -0.523121
     52 C18         1.6460    5.4020   -3.6070 c3        1 MOL     -0.274691
     53 C19         0.9790    6.7570   -4.0270 c         1 MOL      0.678789
     54 N6         -0.1970    7.0980   -3.5720 n         1 MOL     -0.777837
     55 O11         1.4670    7.4900   -4.8410 o         1 MOL     -0.571875
     56 H20         3.6070    3.7100   -3.6070 hn        1 MOL      0.268837
     57 H21         3.5330    6.5350   -3.4130 h1        1 MOL      0.110567
     58 H22         0.9610    4.8010   -3.0050 hc        1 MOL      0.106056
     59 H23         1.7390    4.9010   -4.5640 hc        1 MOL      0.106056
     60 H24        -0.6080    6.6120   -2.7960 hn        1 MOL      0.358576
     61 H25        -0.5170    8.0370   -3.7390 hn        1 MOL      0.358576
     62 N7          2.6150    5.2690   -0.5370 n         1 MOL     -0.322885
     63 C20         2.0090    5.4200    0.8260 c3        1 MOL     -0.229690
     64 C21         0.4730    5.4870    0.8670 c         1 MOL      0.585468
     65 O12        -0.2980    5.1000   -0.0290 o         1 MOL     -0.490003
     66 H26         2.7930    4.2990   -0.7550 hn        1 MOL      0.279739
     67 H27         2.4530    6.2530    1.3790 h1        1 MOL      0.131056
     68 H28         2.2800    4.5590    1.4320 h1        1 MOL      0.131056
     69 N8          0.0030    6.0340    2.0220 n         1 MOL     -0.446064
     70 C22        -1.4570    6.2040    2.3300 c3        1 MOL     -0.312396
     71 C23        -2.1340    4.8830    2.7040 c         1 MOL      0.653557
     72 O13        -3.3560    4.7910    2.4580 o         1 MOL     -0.570220
     73 C24        -1.7260    7.2650    3.3740 c3        1 MOL      0.602489
     74 C25        -1.2880    6.7190    4.7290 c3        1 MOL     -0.400730
     75 O14        -0.9680    8.4470    3.2550 oh        1 MOL     -0.650513
     76 H29         0.6190    6.3180    2.7730 hn        1 MOL      0.260420
     77 H30        -1.9290    6.5790    1.4140 h1        1 MOL      0.145194
     78 H31        -2.8070    7.4280    3.3970 h1        1 MOL     -0.002739
     79 H32        -0.0510    8.1520    3.2470 ho        1 MOL      0.389025
     80 H33        -0.4120    6.0810    4.6290 hc        1 MOL      0.084994
     81 H34        -1.1280    7.4720    5.5050 hc        1 MOL      0.084994
     82 H35        -2.0950    6.1480    5.1870 hc        1 MOL      0.084994
     83 N9         -1.3970    3.9360    3.3650 n         1 MOL     -0.518801
     84 C26        -1.9740    2.5890    3.6110 c3        1 MOL      0.143006
     85 C27        -1.4610    1.5330    2.6350 c         1 MOL      0.620354
     86 O15        -0.3200    1.6010    2.1750 o         1 MOL     -0.515405
     87 C28        -1.8180    2.1350    5.0930 c3        1 MOL     -0.082851
     88 C29        -2.6840    2.9870    5.9850 c3        1 MOL     -0.106327
     89 C30        -2.0190    0.6110    5.3400 c3        1 MOL     -0.033628
     90 C31        -4.1630    2.7590    5.7970 c3        1 MOL     -0.130607
     91 H36        -0.4310    4.1780    3.5380 hn        1 MOL      0.279524
     92 H37        -3.0530    2.5690    3.4470 h1        1 MOL      0.089257
     93 H38        -0.7640    2.3070    5.3100 hc        1 MOL      0.049038
     94 H39        -2.5590    4.0670    5.8880 hc        1 MOL      0.054033
     95 H40        -2.4800    2.7840    7.0340 hc        1 MOL      0.054033
     96 H41        -3.0190    0.3450    5.0200 hc        1 MOL      0.021621
     97 H42        -1.2790   -0.0090    4.8210 hc        1 MOL      0.021621
     98 H43        -2.0590    0.4200    6.4110 hc        1 MOL      0.021621
     99 H44        -4.5150    2.8150    4.7670 hc        1 MOL      0.036325
    100 H45        -4.4380    1.8380    6.3120 hc        1 MOL      0.036325
    101 H46        -4.7250    3.5320    6.3320 hc        1 MOL      0.036325
    102 N10        -2.3300    0.5590    2.2040 n         1 MOL     -0.652878
    103 C32        -1.8960   -0.2600    0.9990 c3        1 MOL      0.195953
    104 C33        -3.0260   -0.3770   -0.0400 c         1 MOL      0.479074
    105 O16        -2.9880   -1.1970   -0.9110 o         1 MOL     -0.499159
    106 C34        -1.4210   -1.6010    1.4800 c3        1 MOL      0.110425
    107 C35        -0.3850   -2.3030    0.6330 c         1 MOL      0.530727
    108 O17         0.1100   -1.8060   -0.4000 o         1 MOL     -0.684537
    109 O18        -0.1100   -3.4340    0.9550 o         1 MOL     -0.684537
    110 H47        -3.2010    0.3220    2.6680 hn        1 MOL      0.322555
    111 H48        -1.0390    0.1310    0.4430 h1        1 MOL      0.058003
    112 H49        -2.2370   -2.3040    1.6110 hc        1 MOL     -0.038014
    113 H50        -1.0120   -1.5380    2.4860 hc        1 MOL     -0.038014
    114 N11        -4.0460    0.4550    0.0870 n         1 MOL     -0.451045
    115 C36        -5.2540    0.4440   -0.7590 c3        1 MOL      0.442822
    116 C37        -6.0730   -0.9050   -0.6460 c         1 MOL      0.132972
    117 O19        -6.2260   -1.3960    0.5140 o         1 MOL     -0.545918
    118 C38        -6.0940    1.6620   -0.4630 c3        1 MOL     -0.222422
    119 C39        -7.3730    1.7010   -1.2710 ca        1 MOL      0.055745
    120 C40        -8.4790    1.0420   -0.7410 ca        1 MOL     -0.148471
    121 C41        -7.3260    2.4070   -2.4960 ca        1 MOL     -0.148471
    122 C42        -9.5810    0.8720   -1.6700 ca        1 MOL     -0.151130
    123 C43        -8.4950    2.3110   -3.3540 ca        1 MOL     -0.151130
    124 C44        -9.6130    1.5740   -2.8960 ca        1 MOL     -0.089120
    125 H51        -3.9600    1.0820    0.8740 hn        1 MOL      0.173891
    126 H52        -4.9020    0.5720   -1.7730 h1        1 MOL     -0.022442
    127 H53        -5.4680    2.4940   -0.8200 hc        1 MOL      0.080562
    128 H54        -6.3500    1.8000    0.5820 hc        1 MOL      0.080562
    129 H55        -8.4980    0.6180    0.2550 ha        1 MOL      0.143862
    130 H56        -6.5080    3.0600   -2.7590 ha        1 MOL      0.143862
    131 H57       -10.4290    0.2690   -1.3870 ha        1 MOL      0.121266
    132 H58        -8.5330    2.7070   -4.3580 ha        1 MOL      0.121266
    133 H59       -10.5160    1.5920   -3.5000 ha        1 MOL      0.097334
    134 N12        -6.4410   -1.5830   -1.7460 n         1 MOL      0.062048
    135 C45        -7.3210   -2.8030   -1.5370 c3        1 MOL      0.135482
    136 C46        -6.7490   -3.9520   -0.8160 c         1 MOL      0.260560
    137 O20        -7.4200   -4.8430   -0.4520 o         1 MOL     -0.476944
    138 C47        -7.7070   -3.1750   -2.9370 c3        1 MOL     -0.184354
    139 C48        -7.4480   -1.9900   -3.7750 c3        1 MOL      0.133846
    140 C49        -6.3660   -1.1820   -3.1550 c3        1 MOL     -0.041016
    141 H60        -8.2540   -2.5220   -1.0470 h1        1 MOL      0.059491
    142 H61        -7.0990   -4.0240   -3.2660 hc        1 MOL      0.056778
    143 H62        -8.7700   -3.4480   -2.8850 hc        1 MOL      0.056778
    144 H63        -7.2330   -2.2520   -4.8110 hc        1 MOL     -0.017106
    145 H64        -8.3840   -1.4430   -3.8690 hc        1 MOL     -0.017106
    146 H65        -5.3610   -1.5200   -3.3870 h1        1 MOL      0.023164
    147 H66        -6.5180   -0.1080   -3.3170 h1        1 MOL      0.023164
    148 N13        -5.4130   -3.9040   -0.5660 n         1 MOL     -0.148583
    149 C50        -4.7410   -4.9710    0.1490 c3        1 MOL     -0.133355
    150 C51        -4.9930   -4.9830    1.6760 c         1 MOL      0.398672
    151 O21        -4.9650   -6.0880    2.2400 o         1 MOL     -0.551334
    152 C52        -3.2110   -4.9140   -0.1200 c3        1 MOL      0.087350
    153 C53        -2.7420   -5.3080   -1.4840 c3        1 MOL     -0.095274
    154 C54        -1.2760   -4.9950   -1.5970 c         1 MOL      0.695683
    155 O22        -0.4410   -5.5950   -0.8340 o         1 MOL     -0.727227
    156 O23        -0.8040   -4.0870   -2.2890 o         1 MOL     -0.727227
    157 H67        -4.8720   -3.2870   -1.1530 hn        1 MOL      0.228492
    158 H68        -5.0510   -5.9620   -0.1860 h1        1 MOL      0.106884
    159 H69        -2.6100   -5.5520    0.5170 hc        1 MOL      0.030616
    160 H70        -2.9910   -3.8600    0.0240 hc        1 MOL      0.030616
    161 H71        -3.2940   -4.7440   -2.2340 hc        1 MOL     -0.019435
    162 H72        -2.8750   -6.3820   -1.6540 hc        1 MOL     -0.019435
    163 N14        -5.2660   -3.8380    2.2030 n         1 MOL     -0.147914
    164 C55        -5.4980   -3.5750    3.6740 c3        1 MOL     -0.145221
    165 H73        -5.3270   -4.4910    4.2380 h1        1 MOL      0.068445
    166 H74        -4.8110   -2.8020    4.0190 h1        1 MOL      0.068445
    167 H75        -6.5250   -3.2420    3.8270 h1        1 MOL      0.068445
    168 H76        -5.1660   -3.0020    1.6420 hn        1 MOL      0.238783
    169 Ca1         1.5090   -3.8840   -1.1610 Ca        1 MOL      1.769463
    170 O24         1.5820   -5.9710   -3.0320 oh        1 MOL     -0.859391
    171 H77         2.3700   -6.4590   -2.7850 ho        1 MOL      0.410861
    172 H78         1.0740   -6.5740   -3.5650 ho        1 MOL      0.410861
    173 O25         3.8920   -4.8530   -1.6760 oh        1 MOL     -0.859391
    174 H79         4.7140   -5.3430   -1.6190 ho        1 MOL      0.410861
    175 H80         3.9860   -4.3100   -2.4520 ho        1 MOL      0.410861
    176 O26         2.3310   -5.5840    0.6470 oh        1 MOL     -0.859391
    177 H81         2.0000   -5.8160    1.5170 ho        1 MOL      0.410861
    178 H82         3.2610   -5.8130    0.6800 ho        1 MOL      0.410861
    179 O27         3.5280   -2.3840   -0.0970 oh        1 MOL     -0.859391
    180 H83         3.7810   -1.4660   -0.1340 ho        1 MOL      0.410861
    181 H84         4.3570   -2.8560    0.0200 ho        1 MOL      0.410861
@<TRIPOS>BOND
     1    1    2 1   
     2    1    4 1   
     3    1    5 1   
     4    1    6 1   
     5    2    3 2   
     6    2    7 1   
     7    7    8 1   
     8    7   15 1   
     9    8    9 1   
    10    8   11 1   
    11    8   16 1   
    12    9   10 2   
    13    9   19 1   
    14   11   12 1   
    15   11   17 1   
    16   11   18 1   
    17   12   13 1   
    18   12   14 1   
    19   19   20 1   
    20   19   24 1   
    21   20   21 1   
    22   20   23 1   
    23   20   25 1   
    24   21   22 2   
    25   21   29 1   
    26   23   26 1   
    27   23   27 1   
    28   23   28 1   
    29   29   30 1   
    30   29   37 1   
    31   30   31 1   
    32   30   33 1   
    33   30   38 1   
    34   31   32 2   
    35   31   41 1   
    36   33   34 1   
    37   33   39 1   
    38   33   40 1   
    39   34   35 1   
    40   34   36 1   
    41   41   42 1   
    42   41   45 1   
    43   42   43 1   
    44   42   46 1   
    45   42   47 1   
    46   43   44 2   
    47   43   48 1   
    48   48   49 1   
    49   48   56 1   
    50   49   50 1   
    51   49   52 1   
    52   49   57 1   
    53   50   51 2   
    54   50   62 1   
    55   52   53 1   
    56   52   58 1   
    57   52   59 1   
    58   53   54 1   
    59   53   55 2   
    60   54   60 1   
    61   54   61 1   
    62   62   63 1   
    63   62   66 1   
    64   63   64 1   
    65   63   67 1   
    66   63   68 1   
    67   64   65 2   
    68   64   69 1   
    69   69   70 1   
    70   69   76 1   
    71   70   71 1   
    72   70   73 1   
    73   70   77 1   
    74   71   72 2   
    75   71   83 1   
    76   73   74 1   
    77   73   75 1   
    78   73   78 1   
    79   74   80 1   
    80   74   81 1   
    81   74   82 1   
    82   75   79 1   
    83   83   84 1   
    84   83   91 1   
    85   84   85 1   
    86   84   87 1   
    87   84   92 1   
    88   85   86 2   
    89   85  102 1   
    90   87   88 1   
    91   87   89 1   
    92   87   93 1   
    93   88   90 1   
    94   88   94 1   
    95   88   95 1   
    96   89   96 1   
    97   89   97 1   
    98   89   98 1   
    99   90   99 1   
   100   90  100 1   
   101   90  101 1   
   102  102  103 1   
   103  102  110 1   
   104  103  104 1   
   105  103  106 1   
   106  103  111 1   
   107  104  105 2   
   108  104  114 1   
   109  106  107 1   
   110  106  112 1   
   111  106  113 1   
   112  107  108 1   
   113  107  109 1   
   114  114  115 1   
   115  114  125 1   
   116  115  116 1   
   117  115  118 1   
   118  115  126 1   
   119  116  117 2   
   120  116  134 1   
   121  118  119 1   
   122  118  127 1   
   123  118  128 1   
   124  119  120 ar  
   125  119  121 ar  
   126  120  122 ar  
   127  120  129 1   
   128  121  123 ar  
   129  121  130 1   
   130  122  124 ar  
   131  122  131 1   
   132  123  124 ar  
   133  123  132 1   
   134  124  133 1   
   135  134  135 1   
   136  134  140 1   
   137  135  136 1   
   138  135  138 1   
   139  135  141 1   
   140  136  137 2   
   141  136  148 1   
   142  138  139 1   
   143  138  142 1   
   144  138  143 1   
   145  139  140 1   
   146  139  144 1   
   147  139  145 1   
   148  140  146 1   
   149  140  147 1   
   150  148  149 1   
   151  148  157 1   
   152  149  150 1   
   153  149  152 1   
   154  149  158 1   
   155  150  151 2   
   156  150  163 1   
   157  152  153 1   
   158  152  159 1   
   159  152  160 1   
   160  153  154 1   
   161  153  161 1   
   162  153  162 1   
   163  154  155 1   
   164  154  156 1   
   165  163  164 1   
   166  163  168 1   
   167  164  165 1   
   168  164  166 1   
   169  164  167 1   
   170  170  171 1   
   171  170  172 1   
   172  173  174 1   
   173  173  175 1   
   174  176  177 1   
   175  176  178 1   
   176  179  180 1   
   177  179  181 1   
@<TRIPOS>SUBSTRUCTURE
     1 MOL         1 TEMP              0 ****  ****    0 ROOT
