@<TRIPOS>MOLECULE
MOL
  189   185     1     0     0
SMALL
resp


@<TRIPOS>ATOM
      1 C1         -9.7710    0.3700   -2.5950 c3        1 MOL     -0.422947
      2 C2         -8.5310    0.2390   -1.6230 c         1 MOL      0.743343
      3 O1         -7.3690    0.0520   -2.0790 o         1 MOL     -0.688616
      4 H1        -10.6690    0.0210   -2.0850 hc        1 MOL      0.111536
      5 H2         -9.8980    1.4130   -2.8830 hc        1 MOL      0.111536
      6 H3         -9.6010   -0.2360   -3.4860 hc        1 MOL      0.111536
      7 N1         -8.6490    0.3750   -0.3540 n         1 MOL     -0.544677
      8 C3         -7.6090    0.3430    0.6850 c3        1 MOL      0.145897
      9 C4         -7.1940   -1.1380    1.0200 c         1 MOL      0.554721
     10 O2         -7.4000   -1.5380    2.1310 o         1 MOL     -0.442612
     11 C5         -7.8500    1.3170    1.8690 c3        1 MOL     -0.291298
     12 C6         -9.1900    1.0730    2.5690 c         1 MOL      0.737970
     13 O3        -10.2220    1.3390    1.9840 o         1 MOL     -0.640795
     14 O4         -9.2410    0.5110    3.6950 o         1 MOL     -0.640795
     15 H4         -9.6150    0.4320   -0.0560 hn        1 MOL      0.260473
     16 H5         -6.6950    0.7240    0.2130 h1        1 MOL      0.082933
     17 H6         -7.9370    2.2910    1.3930 hc        1 MOL      0.080648
     18 H7         -6.9450    1.3860    2.4870 hc        1 MOL      0.080648
     19 N2         -6.7250   -1.9210    0.0220 n         1 MOL     -0.443715
     20 C7         -6.1710   -3.2540    0.1310 c3        1 MOL      0.101730
     21 C8         -4.8520   -3.2610    0.7730 c         1 MOL      0.451174
     22 O5         -4.6560   -3.9000    1.7680 o         1 MOL     -0.539383
     23 C9         -6.2160   -3.9700   -1.2400 c3        1 MOL     -0.165272
     24 C10        -7.5390   -4.0080   -2.0560 c3        1 MOL      0.037734
     25 C11        -8.7390   -4.8750   -1.5070 c3        1 MOL      0.003921
     26 C12        -9.9370   -4.6950   -2.4810 c3        1 MOL      0.033262
     27 N3        -11.0230   -5.5470   -2.1050 n4        1 MOL     -0.366662
     28 H8         -6.7090   -1.5690   -0.9260 hn        1 MOL      0.247643
     29 H9         -6.9100   -3.7480    0.7730 h1        1 MOL      0.039186
     30 H10        -6.0380   -5.0190   -1.0000 hc        1 MOL      0.055287
     31 H11        -5.4030   -3.5400   -1.8230 hc        1 MOL      0.055287
     32 H12        -7.3350   -4.4660   -3.0230 hc        1 MOL     -0.001834
     33 H13        -7.9060   -2.9910   -2.1590 hc        1 MOL     -0.001834
     34 H14        -8.9520   -4.5360   -0.4850 hc        1 MOL      0.037774
     35 H15        -8.4510   -5.9240   -1.3600 hc        1 MOL      0.037774
     36 H16        -9.6170   -4.8520   -3.5080 hx        1 MOL      0.069638
     37 H17       -10.1420   -3.6270   -2.3490 hx        1 MOL      0.069638
     38 H18       -10.7510   -6.5190   -2.0510 hn        1 MOL      0.316695
     39 H19       -11.3810   -5.2750   -1.2020 hn        1 MOL      0.316695
     40 H20       -11.6880   -5.3880   -2.8380 hn        1 MOL      0.316695
     41 N4         -3.7840   -2.5990    0.3390 n         1 MOL     -0.236019
     42 C13        -3.7380   -1.5930   -0.7190 c3        1 MOL     -0.089561
     43 C14        -3.5300   -0.1780   -0.2140 c         1 MOL      0.197028
     44 O6         -3.1030    0.0060    0.9680 o         1 MOL     -0.378115
     45 C15        -2.4590   -1.9420   -1.5670 c3        1 MOL     -0.515172
     46 C16        -1.1010   -2.3200   -0.8550 c         1 MOL      0.712016
     47 O7         -0.8210   -1.9140    0.2890 o         1 MOL     -0.631099
     48 O8         -0.3250   -3.1500   -1.4500 o         1 MOL     -0.631099
     49 H21        -2.9290   -2.7920    0.8470 hn        1 MOL      0.328041
     50 H22        -4.5060   -1.6590   -1.4850 h1        1 MOL      0.198393
     51 H23        -2.3250   -1.1300   -2.2910 hc        1 MOL      0.134702
     52 H24        -2.8230   -2.6890   -2.2680 hc        1 MOL      0.134702
     53 N5         -3.8300    0.8940   -0.9850 n         1 MOL     -0.144795
     54 C17        -3.7790    2.3780   -0.6070 c3        1 MOL     -0.189979
     55 C18        -2.5560    2.9030    0.2500 c         1 MOL      0.618613
     56 O9         -1.4570    2.2690    0.2050 o         1 MOL     -0.663619
     57 H25        -4.2650    0.6230   -1.8590 hn        1 MOL      0.234656
     58 H26        -4.6610    2.6360   -0.0170 h1        1 MOL      0.091036
     59 H27        -3.6410    2.9210   -1.5450 h1        1 MOL      0.091036
     60 N6         -2.5860    4.0650    0.9710 n         1 MOL     -0.375487
     61 C19        -1.5720    4.5390    1.9770 c3        1 MOL      0.177397
     62 C20        -1.4270    6.1020    1.8660 c         1 MOL      0.345340
     63 O10        -2.4570    6.7920    1.8340 o         1 MOL     -0.516421
     64 C21        -1.9840    4.1640    3.4610 c3        1 MOL     -0.075310
     65 C22        -1.6690    2.6980    3.6570 c         1 MOL      0.578585
     66 O11        -2.4690    2.0150    4.3530 o         1 MOL     -0.643756
     67 O12        -0.7310    2.1650    3.0290 o         1 MOL     -0.643756
     68 H28        -3.3960    4.6660    1.0130 hn        1 MOL      0.263203
     69 H29        -0.5550    4.1790    1.8080 h1        1 MOL     -0.017460
     70 H30        -3.0650    4.2560    3.5690 hc        1 MOL      0.048973
     71 H31        -1.4660    4.7560    4.2180 hc        1 MOL      0.048973
     72 N7         -0.2240    6.7420    1.8500 n         1 MOL     -0.382437
     73 C23         1.1100    6.1320    1.7150 c3        1 MOL     -0.060262
     74 C24         1.3900    5.7660    0.2430 c         1 MOL      0.609612
     75 O13         0.5540    5.9990   -0.6350 o         1 MOL     -0.519099
     76 H32        -0.2500    7.7590    1.8180 hn        1 MOL      0.301581
     77 H33         1.1380    5.2660    2.3780 h1        1 MOL      0.081972
     78 H34         1.9050    6.7720    2.0840 h1        1 MOL      0.081972
     79 N8          2.5790    5.1930    0.0040 n         1 MOL     -0.542625
     80 C25         3.0290    4.6770   -1.3440 c3        1 MOL      0.271167
     81 C26         2.5110    3.1840   -1.6380 c         1 MOL      0.200079
     82 O14         3.2960    2.2210   -1.5780 o         1 MOL     -0.380715
     83 C27         4.5700    4.8180   -1.4970 c3        1 MOL      0.344456
     84 C28         5.4160    4.4540   -0.2670 c3        1 MOL     -0.311776
     85 O15         4.7980    6.1880   -1.7020 oh        1 MOL     -0.664509
     86 H35         3.0990    4.9020    0.8120 hn        1 MOL      0.303796
     87 H36         2.5540    5.2540   -2.1520 h1        1 MOL      0.017434
     88 H37         4.9020    4.3010   -2.4030 h1        1 MOL     -0.038796
     89 H38         5.5950    6.3210   -2.2190 ho        1 MOL      0.409269
     90 H39         4.9520    5.0040    0.5520 hc        1 MOL      0.086488
     91 H40         5.1740    3.4030   -0.0890 hc        1 MOL      0.086488
     92 H41         6.4560    4.6620   -0.5180 hc        1 MOL      0.086488
     93 N9          1.2200    3.0090   -2.0120 n         1 MOL     -0.159464
     94 C29         0.8270    1.9420   -2.9390 c3        1 MOL     -0.140952
     95 C30         1.0730    0.6020   -2.2650 c         1 MOL      0.169994
     96 O16         0.5370    0.1850   -1.2350 o         1 MOL     -0.210355
     97 C31        -0.6830    2.1100   -3.3340 c3        1 MOL      0.187547
     98 C32        -1.1100    3.5290   -3.7730 c3        1 MOL      0.009190
     99 C33        -1.0510    1.0850   -4.4180 c3        1 MOL     -0.381802
    100 C34         0.0100    4.3850   -4.5500 c3        1 MOL     -0.360450
    101 H42         0.6110    3.8150   -1.9480 hn        1 MOL      0.272590
    102 H43         1.5100    1.9460   -3.7910 h1        1 MOL      0.095750
    103 H44        -1.2520    1.9550   -2.4120 hc        1 MOL     -0.029340
    104 H45        -1.4940    4.0030   -2.8730 hc        1 MOL      0.039726
    105 H46        -2.0320    3.4530   -4.3520 hc        1 MOL      0.039726
    106 H47        -0.7580    0.0820   -4.0980 hc        1 MOL      0.099697
    107 H48        -2.1320    1.0690   -4.5830 hc        1 MOL      0.099697
    108 H49        -0.6990    1.3050   -5.4230 hc        1 MOL      0.099697
    109 H50         1.0560    4.2610   -4.2520 hc        1 MOL      0.092844
    110 H51        -0.0300    4.0600   -5.5900 hc        1 MOL      0.092844
    111 H52        -0.2310    5.4530   -4.5450 hc        1 MOL      0.092844
    112 N10         1.9930   -0.1280   -2.9080 n         1 MOL     -0.184448
    113 C35         2.5080   -1.5070   -2.5080 c3        1 MOL     -0.094213
    114 C36         3.9610   -1.5060   -2.0660 c         1 MOL      0.502826
    115 O17         4.4490   -2.6650   -2.0060 o         1 MOL     -0.606992
    116 C37         2.1640   -2.5220   -3.6120 c3        1 MOL      0.478042
    117 C38         2.8750   -2.1700   -4.9210 c3        1 MOL     -0.333080
    118 O18         0.7530   -2.5290   -3.8420 oh        1 MOL     -0.650019
    119 H53         2.4770    0.2400   -3.7050 hn        1 MOL      0.243005
    120 H54         1.9960   -1.9090   -1.6290 h1        1 MOL     -0.005546
    121 H55         2.3730   -3.5430   -3.2910 h1        1 MOL      0.002345
    122 H56         0.3110   -2.6070   -2.9890 ho        1 MOL      0.370762
    123 H57         2.9260   -3.1170   -5.4480 hc        1 MOL      0.067680
    124 H58         2.2570   -1.4820   -5.5010 hc        1 MOL      0.067680
    125 H59         3.8410   -1.7020   -4.7470 hc        1 MOL      0.067680
    126 N11         4.5710   -0.3250   -1.8080 n         1 MOL     -0.098649
    127 C39         6.0260   -0.3800   -1.5190 c3        1 MOL     -0.083080
    128 C40         6.4250   -0.9900   -0.1610 c         1 MOL      0.228599
    129 O19         6.4390   -0.3120    0.9150 o         1 MOL     -0.421446
    130 C41         6.5510    1.0050   -1.7380 c3        1 MOL      0.478662
    131 C42         8.1010    1.0440   -1.5750 c3        1 MOL     -0.517112
    132 O20         6.2820    1.5190   -3.0400 oh        1 MOL     -0.656302
    133 H60         4.0990    0.5330   -2.0600 hn        1 MOL      0.091545
    134 H61         6.6010   -0.9100   -2.2850 h1        1 MOL      0.073726
    135 H62         6.0490    1.6690   -1.0420 h1        1 MOL     -0.070332
    136 H63         6.5150    2.4490   -3.0550 ho        1 MOL      0.419228
    137 H64         8.4420    2.0810   -1.6140 hc        1 MOL      0.127110
    138 H65         8.4880    0.5280   -0.6920 hc        1 MOL      0.127110
    139 H66         8.5240    0.6450   -2.4910 hc        1 MOL      0.127110
    140 N12         6.8170   -2.3030   -0.1370 n         1 MOL     -0.079240
    141 C43         7.0930   -3.0900    1.0910 c3        1 MOL      0.119119
    142 C44         5.9640   -2.8840    2.0910 c         1 MOL      0.457644
    143 O21         6.1580   -2.4700    3.2220 o         1 MOL     -0.490808
    144 C45         8.4740   -2.7170    1.6250 c3        1 MOL     -0.364739
    145 C46         9.6930   -3.0930    0.6960 c3        1 MOL      0.251118
    146 C47        11.0930   -2.9060    1.3620 c3        1 MOL     -0.098609
    147 C48        12.2640   -2.8810    0.3730 c3        1 MOL      0.041351
    148 N13        12.8340   -4.2550    0.2990 n4        1 MOL     -0.313827
    149 H67         7.0150   -2.7520   -1.0170 hn        1 MOL      0.165554
    150 H68         7.0240   -4.0990    0.6710 h1        1 MOL      0.040871
    151 H69         8.6940   -3.2480    2.5500 hc        1 MOL      0.118049
    152 H70         8.4220   -1.6490    1.8310 hc        1 MOL      0.118049
    153 H71         9.6330   -2.4610   -0.1860 hc        1 MOL     -0.059143
    154 H72         9.5130   -4.1160    0.3730 hc        1 MOL     -0.059143
    155 H73        11.1820   -3.6230    2.1830 hc        1 MOL      0.056942
    156 H74        11.1090   -1.8850    1.7560 hc        1 MOL      0.056942
    157 H75        13.1320   -2.2540    0.6090 hx        1 MOL      0.075589
    158 H76        11.8330   -2.7140   -0.6190 hx        1 MOL      0.075589
    159 H77        13.4590   -4.2810   -0.4940 hn        1 MOL      0.249536
    160 H78        13.3640   -4.4480    1.1300 hn        1 MOL      0.249536
    161 H79        12.1000   -4.9430    0.2720 hn        1 MOL      0.249536
    162 N14         4.7710   -3.1320    1.6930 n         1 MOL     -0.509157
    163 C49         3.4720   -2.4750    2.1740 c3        1 MOL      0.152045
    164 C50         2.4180   -2.4450    1.1620 c         1 MOL      0.506286
    165 O22         1.8640   -1.3800    0.8070 o         1 MOL     -0.713313
    166 C51         2.9940   -3.2400    3.4340 c3        1 MOL     -0.207947
    167 C52         1.6650   -2.6480    4.0220 c3        1 MOL      0.029072
    168 C53         1.7100   -1.1420    4.3990 c         1 MOL      0.595676
    169 O23         2.5930   -0.7670    5.2320 o         1 MOL     -0.657955
    170 O24         0.8930   -0.4150    3.7550 o         1 MOL     -0.657955
    171 H80         4.7780   -3.5250    0.7660 hn        1 MOL      0.241050
    172 H81         3.8020   -1.4500    2.3450 h1        1 MOL      0.156887
    173 H82         3.7190   -3.0850    4.2440 hc        1 MOL      0.079234
    174 H83         2.8830   -4.3070    3.2770 hc        1 MOL      0.079234
    175 H84         1.4430   -3.2300    4.9220 hc        1 MOL     -0.015666
    176 H85         0.8480   -2.7780    3.3280 hc        1 MOL     -0.015666
    177 N15         1.9630   -3.4590    0.4310 n         1 MOL     -0.156082
    178 C54         2.0930   -4.8840    0.7310 c3        1 MOL     -0.232274
    179 H86         1.1320   -5.3760    0.5780 h1        1 MOL      0.078773
    180 H87         2.8370   -5.3290    0.0710 h1        1 MOL      0.078773
    181 H88         2.4040   -5.0110    1.7680 h1        1 MOL      0.078773
    182 H89         1.2010   -3.1870   -0.1780 hn        1 MOL      0.300831
    183 Ca1        -0.2480    0.1870    1.5590 Ca        1 MOL      1.732283
    184 O25        -1.8130   -1.4860    3.2060 oh        1 MOL     -0.951646
    185 H90        -2.6900   -1.1400    3.3690 ho        1 MOL      0.446559
    186 H91        -1.5730   -1.9450    4.0140 ho        1 MOL      0.446559
    187 O26         2.2610    1.3660    1.1600 oh        1 MOL     -0.951646
    188 H92         2.9730    1.5230    1.7800 ho        1 MOL      0.446559
    189 H93         2.6880    1.3800    0.3030 ho        1 MOL      0.446559
@<TRIPOS>BOND
     1    1    2 1   
     2    1    4 1   
     3    1    5 1   
     4    1    6 1   
     5    2    3 2   
     6    2    7 1   
     7    7    8 1   
     8    7   15 1   
     9    8    9 1   
    10    8   11 1   
    11    8   16 1   
    12    9   10 2   
    13    9   19 1   
    14   11   12 1   
    15   11   17 1   
    16   11   18 1   
    17   12   13 1   
    18   12   14 1   
    19   19   20 1   
    20   19   28 1   
    21   20   21 1   
    22   20   23 1   
    23   20   29 1   
    24   21   22 2   
    25   21   41 1   
    26   23   24 1   
    27   23   30 1   
    28   23   31 1   
    29   24   25 1   
    30   24   32 1   
    31   24   33 1   
    32   25   26 1   
    33   25   34 1   
    34   25   35 1   
    35   26   27 1   
    36   26   36 1   
    37   26   37 1   
    38   27   38 1   
    39   27   39 1   
    40   27   40 1   
    41   41   42 1   
    42   41   49 1   
    43   42   43 1   
    44   42   45 1   
    45   42   50 1   
    46   43   44 2   
    47   43   53 1   
    48   45   46 1   
    49   45   51 1   
    50   45   52 1   
    51   46   47 1   
    52   46   48 1   
    53   53   54 1   
    54   53   57 1   
    55   54   55 1   
    56   54   58 1   
    57   54   59 1   
    58   55   56 2   
    59   55   60 1   
    60   60   61 1   
    61   60   68 1   
    62   61   62 1   
    63   61   64 1   
    64   61   69 1   
    65   62   63 2   
    66   62   72 1   
    67   64   65 1   
    68   64   70 1   
    69   64   71 1   
    70   65   66 1   
    71   65   67 1   
    72   72   73 1   
    73   72   76 1   
    74   73   74 1   
    75   73   77 1   
    76   73   78 1   
    77   74   75 2   
    78   74   79 1   
    79   79   80 1   
    80   79   86 1   
    81   80   81 1   
    82   80   83 1   
    83   80   87 1   
    84   81   82 2   
    85   81   93 1   
    86   83   84 1   
    87   83   85 1   
    88   83   88 1   
    89   84   90 1   
    90   84   91 1   
    91   84   92 1   
    92   85   89 1   
    93   93   94 1   
    94   93  101 1   
    95   94   95 1   
    96   94   97 1   
    97   94  102 1   
    98   95   96 2   
    99   95  112 1   
   100   97   98 1   
   101   97   99 1   
   102   97  103 1   
   103   98  100 1   
   104   98  104 1   
   105   98  105 1   
   106   99  106 1   
   107   99  107 1   
   108   99  108 1   
   109  100  109 1   
   110  100  110 1   
   111  100  111 1   
   112  112  113 1   
   113  112  119 1   
   114  113  114 1   
   115  113  116 1   
   116  113  120 1   
   117  114  115 2   
   118  114  126 1   
   119  116  117 1   
   120  116  118 1   
   121  116  121 1   
   122  117  123 1   
   123  117  124 1   
   124  117  125 1   
   125  118  122 1   
   126  126  127 1   
   127  126  133 1   
   128  127  128 1   
   129  127  130 1   
   130  127  134 1   
   131  128  129 2   
   132  128  140 1   
   133  130  131 1   
   134  130  132 1   
   135  130  135 1   
   136  131  137 1   
   137  131  138 1   
   138  131  139 1   
   139  132  136 1   
   140  140  141 1   
   141  140  149 1   
   142  141  142 1   
   143  141  144 1   
   144  141  150 1   
   145  142  143 2   
   146  142  162 1   
   147  144  145 1   
   148  144  151 1   
   149  144  152 1   
   150  145  146 1   
   151  145  153 1   
   152  145  154 1   
   153  146  147 1   
   154  146  155 1   
   155  146  156 1   
   156  147  148 1   
   157  147  157 1   
   158  147  158 1   
   159  148  159 1   
   160  148  160 1   
   161  148  161 1   
   162  162  163 1   
   163  162  171 1   
   164  163  164 1   
   165  163  166 1   
   166  163  172 1   
   167  164  165 2   
   168  164  177 1   
   169  166  167 1   
   170  166  173 1   
   171  166  174 1   
   172  167  168 1   
   173  167  175 1   
   174  167  176 1   
   175  168  169 1   
   176  168  170 1   
   177  177  178 1   
   178  177  182 1   
   179  178  179 1   
   180  178  180 1   
   181  178  181 1   
   182  184  185 1   
   183  184  186 1   
   184  187  188 1   
   185  187  189 1   
@<TRIPOS>SUBSTRUCTURE
     1 MOL         1 TEMP              0 ****  ****    0 ROOT
