@<TRIPOS>MOLECULE
MOL
  181   177     1     0     0
SMALL
resp


@<TRIPOS>ATOM
      1 C1          4.4360    7.1030   -3.4590 c3        1 MOL     -0.372901
      2 C2          4.0910    5.6520   -3.2070 c         1 MOL      0.661143
      3 O1          3.3740    5.0430   -3.9640 o         1 MOL     -0.539292
      4 H1          5.5190    7.2240   -3.4600 hc        1 MOL      0.101764
      5 H2          4.0350    7.4100   -4.4260 hc        1 MOL      0.101764
      6 H3          4.0020    7.7220   -2.6730 hc        1 MOL      0.101764
      7 N1          4.6320    5.0800   -2.1280 n         1 MOL     -0.466063
      8 C3          5.7400    5.4560   -1.2090 c3        1 MOL     -0.301108
      9 C4          5.6290    4.6280    0.0820 c         1 MOL      0.950278
     10 O2          5.2290    3.5060    0.0900 o         1 MOL     -0.704152
     11 C5          7.1420    5.1280   -1.8190 c3        1 MOL      0.086764
     12 C6          7.5510    3.7310   -2.3370 c         1 MOL      0.543021
     13 O3          8.6790    3.6000   -2.9290 o         1 MOL     -0.661420
     14 O4          6.7280    2.7910   -2.1310 o         1 MOL     -0.661420
     15 H4          4.4030    4.1150   -1.9320 hn        1 MOL      0.289277
     16 H5          5.7010    6.5310   -1.0240 h1        1 MOL      0.101936
     17 H6          7.9010    5.5160   -1.1420 hc        1 MOL      0.000586
     18 H7          7.3050    5.7820   -2.6760 hc        1 MOL      0.000586
     19 N2          5.9540    5.2030    1.2290 n         1 MOL     -0.726459
     20 C7          5.8480    4.8230    2.6700 c3        1 MOL      0.251776
     21 C8          6.6180    3.5710    3.1740 c         1 MOL      0.366547
     22 O5          6.9090    3.5440    4.3950 o         1 MOL     -0.534365
     23 C9          4.3420    4.7450    2.8390 c3        1 MOL     -0.143468
     24 H8          6.2690    6.1610    1.1590 hn        1 MOL      0.322118
     25 H9          6.2700    5.5860    3.3190 h1        1 MOL      0.033870
     26 H10         3.8490    5.5920    2.3710 hc        1 MOL      0.053682
     27 H11         3.9280    3.8540    2.3630 hc        1 MOL      0.053682
     28 H12         4.0850    4.7810    3.8940 hc        1 MOL      0.053682
     29 N3          6.8780    2.6020    2.3140 n         1 MOL     -0.142663
     30 C10         7.6040    1.3380    2.6110 c3        1 MOL     -0.080379
     31 C11         8.2130    0.8300    1.3010 c         1 MOL      0.510742
     32 O6          7.5610    0.8300    0.1950 o         1 MOL     -0.489426
     33 C12         6.5950    0.2770    3.1650 c3        1 MOL     -0.008706
     34 C13         5.2560    0.0890    2.4800 c         1 MOL      0.717348
     35 O7          4.9490    0.6970    1.4530 o         1 MOL     -0.695423
     36 O8          4.3340   -0.4650    3.0740 o         1 MOL     -0.695423
     37 H13         6.6670    2.8660    1.3650 hn        1 MOL      0.114668
     38 H14         8.4340    1.5350    3.2920 h1        1 MOL      0.058252
     39 H15         6.4030    0.6860    4.1570 hc        1 MOL      0.035269
     40 H16         7.0290   -0.6970    3.4190 hc        1 MOL      0.035269
     41 N4          9.3850    0.1920    1.3860 n         1 MOL     -0.531437
     42 C14         9.8360   -0.6100    0.2320 c3        1 MOL      0.069241
     43 C15         9.3700   -2.0010    0.1850 c         1 MOL      0.301433
     44 O9         10.1950   -2.9620    0.0390 o         1 MOL     -0.558775
     45 H17         9.8310    0.0070    2.2700 hn        1 MOL      0.352289
     46 H18        10.9260   -0.6130    0.2750 h1        1 MOL      0.094880
     47 H19         9.6620   -0.0730   -0.7040 h1        1 MOL      0.094880
     48 N5          8.1440   -2.2650    0.6160 n         1 MOL     -0.038682
     49 C16         7.3420   -3.5230    0.5850 c3        1 MOL     -0.021979
     50 C17         6.0320   -3.2300   -0.1540 c         1 MOL      0.525349
     51 O10         5.5410   -2.1130   -0.0900 o         1 MOL     -0.463382
     52 C18         7.0680   -3.9950    2.0080 c3        1 MOL     -0.058341
     53 C19         8.2910   -4.4970    2.8970 c         1 MOL      0.589280
     54 N6          9.4560   -4.6850    2.2650 n         1 MOL     -0.756909
     55 O11         8.1030   -4.7150    4.0840 o         1 MOL     -0.544310
     56 H20         7.6000   -1.4590    0.8850 hn        1 MOL      0.005357
     57 H21         7.8950   -4.2760    0.0210 h1        1 MOL      0.049079
     58 H22         6.3890   -4.8530    1.9780 hc        1 MOL      0.046319
     59 H23         6.6130   -3.2010    2.6070 hc        1 MOL      0.046319
     60 H24         9.6300   -4.4340    1.3070 hn        1 MOL      0.351020
     61 H25        10.2400   -5.0570    2.7940 hn        1 MOL      0.351020
     62 N7          5.4750   -4.2520   -0.8190 n         1 MOL     -0.581112
     63 C20         4.0450   -4.2960   -1.0900 c3        1 MOL      0.133727
     64 C21         3.3470   -4.9100    0.1160 c         1 MOL      0.742826
     65 O12         3.9440   -5.5060    0.9920 o         1 MOL     -0.592033
     66 H26         5.8470   -5.1880   -0.7460 hn        1 MOL      0.323544
     67 H27         3.9200   -4.8400   -2.0270 h1        1 MOL      0.017165
     68 H28         3.6810   -3.2660   -1.1500 h1        1 MOL      0.017165
     69 N8          1.9940   -4.9640    0.0860 n         1 MOL     -0.591479
     70 C22         1.1590   -4.4740   -0.9720 c3        1 MOL     -0.064982
     71 C23        -0.1590   -3.8730   -0.4500 c         1 MOL      0.551670
     72 O13        -0.7690   -4.4880    0.3630 o         1 MOL     -0.516351
     73 C24         0.7660   -5.6410   -1.9500 c3        1 MOL      0.307983
     74 C25         0.1430   -5.3490   -3.3340 c3        1 MOL     -0.186225
     75 O14         2.0050   -6.3220   -2.2350 oh        1 MOL     -0.637254
     76 H29         1.5810   -5.5510    0.7880 hn        1 MOL      0.336034
     77 H30         1.6650   -3.6990   -1.5570 h1        1 MOL      0.071083
     78 H31         0.0080   -6.2890   -1.5200 h1        1 MOL      0.050484
     79 H32         2.2600   -6.9630   -1.5560 ho        1 MOL      0.371459
     80 H33        -0.6910   -4.6470   -3.2220 hc        1 MOL      0.063197
     81 H34         0.8580   -4.8460   -3.9810 hc        1 MOL      0.063197
     82 H35        -0.1880   -6.2670   -3.8120 hc        1 MOL      0.063197
     83 N9         -0.5470   -2.7290   -1.0180 n         1 MOL     -0.373792
     84 C26        -1.7700   -1.9760   -0.7600 c3        1 MOL      0.012020
     85 C27        -2.6560   -1.6430   -2.0370 c         1 MOL      0.474134
     86 O15        -2.1740   -1.3880   -3.1610 o         1 MOL     -0.579054
     87 C28        -1.5270   -0.7450    0.2070 c3        1 MOL     -0.142470
     88 C29        -0.6270    0.2700   -0.5880 c3        1 MOL      0.191378
     89 C30        -0.9130   -1.1940    1.5560 c3        1 MOL     -0.365739
     90 C31        -0.5940    1.6200    0.1430 c3        1 MOL     -0.311264
     91 H36        -0.0150   -2.4960   -1.8470 hn        1 MOL      0.220343
     92 H37        -2.3940   -2.6500   -0.1750 h1        1 MOL      0.180357
     93 H38        -2.5290   -0.3830    0.4080 hc        1 MOL      0.139155
     94 H39        -0.7000    0.4070   -1.6670 hc        1 MOL     -0.029471
     95 H40         0.3690   -0.1620   -0.4610 hc        1 MOL     -0.029471
     96 H41        -1.4930   -2.0370    1.9340 hc        1 MOL      0.112716
     97 H42         0.1590   -1.4090    1.5290 hc        1 MOL      0.112716
     98 H43        -0.9410   -0.3750    2.2770 hc        1 MOL      0.112716
     99 H44         0.1960    2.2790   -0.2010 hc        1 MOL      0.069947
    100 H45        -1.5990    2.0380    0.1410 hc        1 MOL      0.069947
    101 H46        -0.3810    1.4250    1.1980 hc        1 MOL      0.069947
    102 N10        -3.9900   -1.6480   -1.9970 n         1 MOL     -0.414194
    103 C32        -4.8260   -2.0790   -0.8730 c3        1 MOL     -0.116468
    104 C33        -6.1760   -1.3560   -0.8730 c         1 MOL      0.483471
    105 O16        -6.6060   -0.8510   -1.8900 o         1 MOL     -0.527750
    106 C34        -5.1410   -3.5360   -0.9390 c3        1 MOL      0.051471
    107 C35        -5.4780   -4.1440   -2.2390 c         1 MOL      0.813298
    108 O17        -6.6550   -4.4280   -2.3860 o         1 MOL     -0.772232
    109 O18        -4.5970   -4.5070   -3.0370 o         1 MOL     -0.772232
    110 H47        -4.4650   -1.5600   -2.8910 hn        1 MOL      0.335909
    111 H48        -4.3580   -1.8680    0.0820 h1        1 MOL      0.072735
    112 H49        -5.9900   -3.7890   -0.2990 hc        1 MOL     -0.065175
    113 H50        -4.2780   -4.1000   -0.6060 hc        1 MOL     -0.065175
    114 N11        -6.8830   -1.4560    0.2760 n         1 MOL     -0.299984
    115 C36        -8.2390   -0.9980    0.4450 c3        1 MOL      0.283334
    116 C37        -8.5500   -0.5680    1.9040 c         1 MOL     -0.030066
    117 O19        -8.3110   -1.4420    2.7910 o         1 MOL     -0.452027
    118 C38        -9.2390   -2.0780   -0.0400 c3        1 MOL     -0.357715
    119 C39       -10.6650   -1.5350    0.0610 ca        1 MOL      0.269303
    120 C40       -11.3930   -1.7100    1.2230 ca        1 MOL     -0.232810
    121 C41       -11.2740   -1.0220   -1.0960 ca        1 MOL     -0.232810
    122 C42       -12.7530   -1.2600    1.2840 ca        1 MOL     -0.093485
    123 C43       -12.6130   -0.7400   -1.0270 ca        1 MOL     -0.093485
    124 C44       -13.3840   -0.7890    0.1520 ca        1 MOL     -0.168939
    125 H51        -6.3540   -1.7220    1.0950 hn        1 MOL      0.290153
    126 H52        -8.2800   -0.1450   -0.2320 h1        1 MOL      0.017534
    127 H53        -9.1360   -2.9080    0.6580 hc        1 MOL      0.129057
    128 H54        -8.9260   -2.3750   -1.0430 hc        1 MOL      0.129057
    129 H55       -10.9730   -1.9970    2.1730 ha        1 MOL      0.153823
    130 H56       -10.6550   -0.7010   -1.9160 ha        1 MOL      0.153823
    131 H57       -13.2790   -1.2910    2.2210 ha        1 MOL      0.087968
    132 H58       -13.0530   -0.3320   -1.9310 ha        1 MOL      0.087968
    133 H59       -14.4110   -0.4670    0.1420 ha        1 MOL      0.100098
    134 N12        -9.1510    0.6230    2.1410 n         1 MOL      0.298462
    135 C45        -9.9050    1.4160    1.1340 c3        1 MOL      0.116637
    136 C46        -8.9840    2.1190    0.1880 c         1 MOL      0.246201
    137 O20        -9.2970    2.1820   -1.0520 o         1 MOL     -0.573228
    138 C47       -10.8820    2.3090    1.8950 c3        1 MOL     -0.011070
    139 C48       -10.6120    2.1630    3.3640 c3        1 MOL     -0.040749
    140 C49        -9.6150    1.0050    3.4510 c3        1 MOL     -0.163193
    141 H60       -10.6390    0.8090    0.6050 h1        1 MOL      0.039924
    142 H61       -10.7400    3.3690    1.6770 hc        1 MOL      0.001957
    143 H62       -11.9040    2.0340    1.6130 hc        1 MOL      0.001957
    144 H63       -10.2870    3.0990    3.8190 hc        1 MOL      0.018649
    145 H64       -11.5050    1.7910    3.8620 hc        1 MOL      0.018649
    146 H65        -8.7300    1.4900    3.8750 h1        1 MOL      0.055915
    147 H66        -9.9570    0.1590    4.0420 h1        1 MOL      0.055915
    148 N13        -7.8850    2.5730    0.6360 n         1 MOL     -0.019327
    149 C50        -6.8080    3.3130   -0.0400 c3        1 MOL      0.052024
    150 C51        -7.2680    4.7880   -0.1790 c         1 MOL      0.351379
    151 O21        -7.2670    5.5990    0.7980 o         1 MOL     -0.560049
    152 C52        -5.5150    3.2570    0.7880 c3        1 MOL     -0.058710
    153 C53        -4.7830    1.9050    0.8210 c3        1 MOL     -0.166512
    154 C54        -5.2970    0.9170    1.8830 c         1 MOL      0.625203
    155 O22        -4.8620   -0.2240    1.9260 o         1 MOL     -0.639778
    156 O23        -6.2620    1.2310    2.6390 o         1 MOL     -0.639778
    157 H67        -7.6780    2.4640    1.6260 hn        1 MOL      0.152089
    158 H68        -6.6360    2.8890   -1.0290 h1        1 MOL      0.091353
    159 H69        -5.8390    3.5820    1.7750 hc        1 MOL      0.025640
    160 H70        -4.8950    4.0900    0.4560 hc        1 MOL      0.025640
    161 H71        -3.6900    1.9600    0.8220 hc        1 MOL      0.033309
    162 H72        -5.0240    1.4000   -0.1140 hc        1 MOL      0.033309
    163 N14        -7.7770    5.3110   -1.3200 n         1 MOL     -0.309729
    164 C55        -8.0190    4.5810   -2.5750 c3        1 MOL     -0.066259
    165 H73        -8.9790    4.8830   -2.9910 h1        1 MOL      0.056069
    166 H74        -7.2270    4.8090   -3.2880 h1        1 MOL      0.056069
    167 H75        -8.0320    3.5090   -2.3750 h1        1 MOL      0.056069
    168 H76        -8.1590    6.2300   -1.1740 hn        1 MOL      0.257922
    169 Ca1         5.1680    1.0530   -1.0730 Ca        1 MOL      1.710684
    170 O24         3.0170   -0.6230   -1.4180 oh        1 MOL     -0.776989
    171 H77         2.7340   -1.0900   -0.6370 ho        1 MOL      0.388460
    172 H78         2.3680   -0.8370   -2.0770 ho        1 MOL      0.388460
    173 O25         4.2930    1.1180   -3.6110 oh        1 MOL     -0.776989
    174 H79         4.9280    0.5710   -4.0710 ho        1 MOL      0.388460
    175 H80         3.6820    1.3990   -4.2990 ho        1 MOL      0.388460
    176 O26         6.9340   -0.3700   -2.4300 oh        1 MOL     -0.776989
    177 H81         6.8530   -1.1740   -2.9470 ho        1 MOL      0.388460
    178 H82         7.7090    0.0520   -2.7790 ho        1 MOL      0.388460
    179 O27         2.8630    2.3880   -1.2070 oh        1 MOL     -0.776989
    180 H83         2.3500    1.9760   -0.5080 ho        1 MOL      0.388460
    181 H84         2.4620    3.2560   -1.3110 ho        1 MOL      0.388460
@<TRIPOS>BOND
     1    1    2 1   
     2    1    4 1   
     3    1    5 1   
     4    1    6 1   
     5    2    3 2   
     6    2    7 1   
     7    7    8 1   
     8    7   15 1   
     9    8    9 1   
    10    8   11 1   
    11    8   16 1   
    12    9   10 2   
    13    9   19 1   
    14   11   12 1   
    15   11   17 1   
    16   11   18 1   
    17   12   13 1   
    18   12   14 1   
    19   19   20 1   
    20   19   24 1   
    21   20   21 1   
    22   20   23 1   
    23   20   25 1   
    24   21   22 2   
    25   21   29 1   
    26   23   26 1   
    27   23   27 1   
    28   23   28 1   
    29   29   30 1   
    30   29   37 1   
    31   30   31 1   
    32   30   33 1   
    33   30   38 1   
    34   31   32 2   
    35   31   41 1   
    36   33   34 1   
    37   33   39 1   
    38   33   40 1   
    39   34   35 1   
    40   34   36 1   
    41   41   42 1   
    42   41   45 1   
    43   42   43 1   
    44   42   46 1   
    45   42   47 1   
    46   43   44 2   
    47   43   48 1   
    48   48   49 1   
    49   48   56 1   
    50   49   50 1   
    51   49   52 1   
    52   49   57 1   
    53   50   51 2   
    54   50   62 1   
    55   52   53 1   
    56   52   58 1   
    57   52   59 1   
    58   53   54 1   
    59   53   55 2   
    60   54   60 1   
    61   54   61 1   
    62   62   63 1   
    63   62   66 1   
    64   63   64 1   
    65   63   67 1   
    66   63   68 1   
    67   64   65 2   
    68   64   69 1   
    69   69   70 1   
    70   69   76 1   
    71   70   71 1   
    72   70   73 1   
    73   70   77 1   
    74   71   72 2   
    75   71   83 1   
    76   73   74 1   
    77   73   75 1   
    78   73   78 1   
    79   74   80 1   
    80   74   81 1   
    81   74   82 1   
    82   75   79 1   
    83   83   84 1   
    84   83   91 1   
    85   84   85 1   
    86   84   87 1   
    87   84   92 1   
    88   85   86 2   
    89   85  102 1   
    90   87   88 1   
    91   87   89 1   
    92   87   93 1   
    93   88   90 1   
    94   88   94 1   
    95   88   95 1   
    96   89   96 1   
    97   89   97 1   
    98   89   98 1   
    99   90   99 1   
   100   90  100 1   
   101   90  101 1   
   102  102  103 1   
   103  102  110 1   
   104  103  104 1   
   105  103  106 1   
   106  103  111 1   
   107  104  105 2   
   108  104  114 1   
   109  106  107 1   
   110  106  112 1   
   111  106  113 1   
   112  107  108 1   
   113  107  109 1   
   114  114  115 1   
   115  114  125 1   
   116  115  116 1   
   117  115  118 1   
   118  115  126 1   
   119  116  117 2   
   120  116  134 1   
   121  118  119 1   
   122  118  127 1   
   123  118  128 1   
   124  119  120 ar  
   125  119  121 ar  
   126  120  122 ar  
   127  120  129 1   
   128  121  123 ar  
   129  121  130 1   
   130  122  124 ar  
   131  122  131 1   
   132  123  124 ar  
   133  123  132 1   
   134  124  133 1   
   135  134  135 1   
   136  134  140 1   
   137  135  136 1   
   138  135  138 1   
   139  135  141 1   
   140  136  137 2   
   141  136  148 1   
   142  138  139 1   
   143  138  142 1   
   144  138  143 1   
   145  139  140 1   
   146  139  144 1   
   147  139  145 1   
   148  140  146 1   
   149  140  147 1   
   150  148  149 1   
   151  148  157 1   
   152  149  150 1   
   153  149  152 1   
   154  149  158 1   
   155  150  151 2   
   156  150  163 1   
   157  152  153 1   
   158  152  159 1   
   159  152  160 1   
   160  153  154 1   
   161  153  161 1   
   162  153  162 1   
   163  154  155 1   
   164  154  156 1   
   165  163  164 1   
   166  163  168 1   
   167  164  165 1   
   168  164  166 1   
   169  164  167 1   
   170  170  171 1   
   171  170  172 1   
   172  173  174 1   
   173  173  175 1   
   174  176  177 1   
   175  176  178 1   
   176  179  180 1   
   177  179  181 1   
@<TRIPOS>SUBSTRUCTURE
     1 MOL         1 TEMP              0 ****  ****    0 ROOT
