@<TRIPOS>MOLECULE
MOL
  181   177     1     0     0
SMALL
resp


@<TRIPOS>ATOM
      1 C1         -9.3210   -6.2950   -4.0150 c3        1 MOL     -0.350573
      2 C2         -8.2960   -5.7200   -2.9110 c         1 MOL      0.573860
      3 O1         -7.0460   -5.9420   -3.0020 o         1 MOL     -0.531282
      4 H1         -8.7730   -6.8980   -4.7390 hc        1 MOL      0.091506
      5 H2        -10.0740   -6.9120   -3.5250 hc        1 MOL      0.091506
      6 H3         -9.8070   -5.4650   -4.5270 hc        1 MOL      0.091506
      7 N1         -8.6900   -4.9140   -1.8390 n         1 MOL     -0.348435
      8 C3         -9.9560   -4.3940   -1.5130 c3        1 MOL     -0.143719
      9 C4         -9.9890   -4.2420    0.0040 c         1 MOL      0.512980
     10 O2         -9.0190   -4.5960    0.7160 o         1 MOL     -0.463731
     11 C5        -10.2110   -2.9810   -2.1620 c3        1 MOL      0.116079
     12 C6         -9.1590   -1.9270   -1.9380 c         1 MOL      0.581812
     13 O3         -8.2800   -1.7130   -2.8350 o         1 MOL     -0.682435
     14 O4         -9.4050   -1.0860   -1.0540 o         1 MOL     -0.682435
     15 H4         -7.9180   -4.6730   -1.2430 hn        1 MOL      0.291341
     16 H5        -10.6880   -5.1530   -1.7950 h1        1 MOL      0.077944
     17 H6        -11.1560   -2.5890   -1.8000 hc        1 MOL     -0.040458
     18 H7        -10.4200   -3.1630   -3.2100 hc        1 MOL     -0.040458
     19 N2        -11.0470   -3.6820    0.5580 n         1 MOL     -0.517408
     20 C7        -11.1580   -3.2850    2.0210 c3        1 MOL      0.295035
     21 C8         -9.8810   -2.5930    2.6140 c         1 MOL      0.415423
     22 O5         -9.5690   -2.6720    3.7830 o         1 MOL     -0.539189
     23 C9        -11.7550   -4.4630    2.7880 c3        1 MOL     -0.352154
     24 H8        -11.7830   -3.3830   -0.0680 hn        1 MOL      0.287845
     25 H9        -11.7820   -2.3960    1.9990 h1        1 MOL      0.010293
     26 H10       -11.0920   -5.3320    2.7250 hc        1 MOL      0.094242
     27 H11       -11.9620   -4.1620    3.8170 hc        1 MOL      0.094242
     28 H12       -12.7310   -4.7590    2.4110 hc        1 MOL      0.094242
     29 N3         -9.0930   -1.8340    1.8160 n         1 MOL     -0.203955
     30 C10        -7.8640   -1.1990    2.1210 c3        1 MOL      0.028636
     31 C11        -7.7920    0.2880    1.7270 c         1 MOL      0.538596
     32 O6         -8.4680    0.7360    0.7700 o         1 MOL     -0.642870
     33 C12        -6.6670   -2.0310    1.6620 c3        1 MOL     -0.270919
     34 C13        -6.4860   -2.1580    0.2180 c         1 MOL      0.653033
     35 O7         -6.5930   -3.2930   -0.2810 o         1 MOL     -0.631754
     36 O8         -6.3750   -1.1110   -0.4680 o         1 MOL     -0.631754
     37 H13        -9.3410   -1.9470    0.8420 hn        1 MOL      0.131116
     38 H14        -7.8090   -1.1540    3.2060 h1        1 MOL      0.036571
     39 H15        -6.7730   -3.0380    2.0600 hc        1 MOL      0.097361
     40 H16        -5.7900   -1.5680    2.1170 hc        1 MOL      0.097361
     41 N4         -7.0650    1.0610    2.5000 n         1 MOL     -0.427245
     42 C14        -6.7680    2.5150    2.3730 c3        1 MOL     -0.088839
     43 C15        -5.9430    2.9240    1.1060 c         1 MOL      0.569184
     44 O9         -5.7590    2.0280    0.2220 o         1 MOL     -0.488804
     45 H17        -6.5310    0.5200    3.1650 hn        1 MOL      0.309003
     46 H18        -6.2830    2.9100    3.2690 h1        1 MOL      0.087770
     47 H19        -7.6870    3.0980    2.3710 h1        1 MOL      0.087770
     48 N5         -5.4340    4.2100    1.0720 n         1 MOL     -0.549498
     49 C16        -4.7160    4.7570   -0.1210 c3        1 MOL      0.012540
     50 C17        -3.1170    4.7460    0.0420 c         1 MOL      0.701120
     51 O10        -2.3270    4.3980   -0.8030 o         1 MOL     -0.515933
     52 C18        -5.3440    6.1240   -0.3740 c3        1 MOL     -0.200726
     53 C19        -6.8250    6.0210   -0.7510 c         1 MOL      0.696298
     54 N6         -7.7940    6.5970   -0.0940 n         1 MOL     -0.734029
     55 O11        -7.1790    5.2420   -1.6480 o         1 MOL     -0.655928
     56 H20        -5.8080    4.7470    1.8390 hn        1 MOL      0.282080
     57 H21        -5.0010    4.1410   -0.9730 h1        1 MOL      0.121726
     58 H22        -4.8330    6.5520   -1.2390 hc        1 MOL      0.069140
     59 H23        -5.1270    6.8670    0.3910 hc        1 MOL      0.069140
     60 H24        -7.6430    7.1620    0.7330 hn        1 MOL      0.335262
     61 H25        -8.7120    6.2160   -0.2510 hn        1 MOL      0.335262
     62 N7         -2.5560    5.1630    1.2140 n         1 MOL     -0.703274
     63 C20        -1.0800    4.9960    1.5430 c3        1 MOL      0.094967
     64 C21        -0.7790    3.5500    1.9860 c         1 MOL      0.700983
     65 O12        -1.6360    2.7720    2.3320 o         1 MOL     -0.575891
     66 H26        -3.1750    5.4680    1.9650 hn        1 MOL      0.328383
     67 H27        -0.8890    5.6840    2.3630 h1        1 MOL      0.081442
     68 H28        -0.5060    5.4620    0.7450 h1        1 MOL      0.081442
     69 N8          0.4400    3.1980    2.1530 n         1 MOL     -0.553978
     70 C22         1.6130    4.0810    2.1160 c3        1 MOL     -0.227909
     71 C23         2.7270    3.6620    1.1280 c         1 MOL      0.676997
     72 O13         3.7050    4.3960    0.9440 o         1 MOL     -0.545766
     73 C24         2.2350    4.1530    3.5200 c3        1 MOL      0.483145
     74 C25         1.2850    4.9210    4.5120 c3        1 MOL     -0.198229
     75 O14         2.4900    2.9080    4.0660 oh        1 MOL     -0.634862
     76 H29         0.4820    2.2790    2.5560 hn        1 MOL      0.373526
     77 H30         1.4330    5.1250    1.8810 h1        1 MOL      0.084875
     78 H31         3.1330    4.7600    3.5280 h1        1 MOL     -0.032373
     79 H32         2.9100    3.1080    4.9130 ho        1 MOL      0.419061
     80 H33         1.0990    5.9350    4.1290 hc        1 MOL      0.023502
     81 H34         0.2920    4.4790    4.4380 hc        1 MOL      0.023502
     82 H35         1.7260    4.8930    5.4990 hc        1 MOL      0.023502
     83 N9          2.6850    2.4280    0.5640 n         1 MOL     -0.515293
     84 C26         3.8010    1.8170   -0.1590 c3        1 MOL     -0.108395
     85 C27         4.1250    2.6060   -1.4720 c         1 MOL      0.593817
     86 O15         3.2960    2.8590   -2.3060 o         1 MOL     -0.580477
     87 C28         3.4120    0.3300   -0.4510 c3        1 MOL      0.049532
     88 C29         3.2370   -0.4190    0.9000 c3        1 MOL      0.030600
     89 C30         4.3770   -0.4290   -1.3100 c3        1 MOL     -0.352743
     90 C31         2.2390   -1.5450    0.7790 c3        1 MOL     -0.383617
     91 H36         1.8490    1.8750    0.6810 hn        1 MOL      0.306073
     92 H37         4.6980    1.7810    0.4600 h1        1 MOL      0.121046
     93 H38         2.4560    0.3630   -0.9690 hc        1 MOL      0.066089
     94 H39         2.8640    0.1940    1.7310 hc        1 MOL      0.031328
     95 H40         4.2370   -0.7390    1.1720 hc        1 MOL      0.031328
     96 H41         3.9800   -1.3800   -1.6520 hc        1 MOL      0.106157
     97 H42         4.6450    0.0510   -2.2500 hc        1 MOL      0.106157
     98 H43         5.3550   -0.6100   -0.8680 hc        1 MOL      0.106157
     99 H44         2.2220   -1.9100    1.8060 hc        1 MOL      0.096619
    100 H45         1.3430   -1.0680    0.3810 hc        1 MOL      0.096619
    101 H46         2.6520   -2.3260    0.1460 hc        1 MOL      0.096619
    102 N10         5.3510    3.0250   -1.7420 n         1 MOL     -0.399031
    103 C32         6.6280    2.8320   -1.0970 c3        1 MOL      0.142362
    104 C33         7.5150    1.6810   -1.5120 c         1 MOL      0.531456
    105 O16         7.2300    1.0170   -2.5380 o         1 MOL     -0.541402
    106 C34         7.5240    4.0890   -1.1980 c3        1 MOL     -0.196622
    107 C35         7.7340    4.6200   -2.6070 c         1 MOL      0.714401
    108 O17         8.4540    5.6170   -2.5700 o         1 MOL     -0.720012
    109 O18         7.2020    4.1190   -3.6330 o         1 MOL     -0.720012
    110 H47         5.3800    3.4470   -2.6690 hn        1 MOL      0.285634
    111 H48         6.4070    2.6840   -0.0400 h1        1 MOL     -0.005309
    112 H49         8.5340    3.9750   -0.7800 hc        1 MOL      0.031785
    113 H50         7.0450    4.8430   -0.5820 hc        1 MOL      0.031785
    114 N11         8.6270    1.3690   -0.8660 n         1 MOL     -0.512498
    115 C36         9.4950    0.2120   -0.9720 c3        1 MOL      0.201173
    116 C37        10.3180   -0.0030    0.3580 c         1 MOL      0.345207
    117 O19        10.7160    1.0110    0.9730 o         1 MOL     -0.505805
    118 C38        10.4790    0.3690   -2.1900 c3        1 MOL     -0.103489
    119 C39        11.3800   -0.8770   -2.4270 ca        1 MOL     -0.052929
    120 C40        12.6870   -0.9030   -1.9450 ca        1 MOL     -0.075349
    121 C41        10.8470   -2.0160   -2.9970 ca        1 MOL     -0.075349
    122 C42        13.4460   -2.0820   -2.0100 ca        1 MOL     -0.154028
    123 C43        11.6200   -3.1950   -3.1750 ca        1 MOL     -0.154028
    124 C44        12.8980   -3.2380   -2.7410 ca        1 MOL     -0.112139
    125 H51         8.7580    2.0120   -0.1010 hn        1 MOL      0.275754
    126 H52         8.7750   -0.5700   -1.2370 h1        1 MOL      0.027587
    127 H53        11.1220    1.2450   -2.1990 hc        1 MOL      0.087315
    128 H54         9.8410    0.4060   -3.0750 hc        1 MOL      0.087315
    129 H55        13.2400   -0.0600   -1.5690 ha        1 MOL      0.103251
    130 H56         9.8400   -1.9980   -3.3910 ha        1 MOL      0.103251
    131 H57        14.4330   -2.0100   -1.5880 ha        1 MOL      0.106415
    132 H58        11.2720   -3.9930   -3.8100 ha        1 MOL      0.106415
    133 H59        13.4620   -4.1410   -2.8730 ha        1 MOL      0.094710
    134 N12        10.4780   -1.2450    0.8370 n         1 MOL     -0.158531
    135 C45         9.8000   -2.4920    0.4820 c3        1 MOL      0.353767
    136 C46         8.2610   -2.4800    0.5480 c         1 MOL      0.519229
    137 O20         7.6740   -1.4040    0.5950 o         1 MOL     -0.485092
    138 C47        10.4320   -3.5690    1.3650 c3        1 MOL     -0.173444
    139 C48        11.7530   -3.0300    1.6990 c3        1 MOL     -0.129189
    140 C49        11.4700   -1.5580    1.8280 c3        1 MOL      0.102527
    141 H60         9.9980   -2.7970   -0.5470 h1        1 MOL     -0.031058
    142 H61         9.8730   -3.6120    2.2970 hc        1 MOL      0.064535
    143 H62        10.4340   -4.5220    0.8270 hc        1 MOL      0.064535
    144 H63        12.0260   -3.4230    2.6750 hc        1 MOL      0.037624
    145 H64        12.4250   -3.1820    0.8610 hc        1 MOL      0.037624
    146 H65        11.0640   -1.3130    2.8100 h1        1 MOL      0.026634
    147 H66        12.4060   -1.0050    1.6960 h1        1 MOL      0.026634
    148 N13         7.6400   -3.6940    0.5900 n         1 MOL     -0.967626
    149 C50         6.2610   -3.8120    1.0680 c3        1 MOL      0.768093
    150 C51         5.3510   -4.8500    0.3000 c         1 MOL      0.305017
    151 O21         4.2980   -5.1530    0.8080 o         1 MOL     -0.474911
    152 C52         6.1560   -3.8520    2.6090 c3        1 MOL     -0.558090
    153 C53         4.8740   -3.2770    3.2510 c3        1 MOL      0.062565
    154 C54         4.8710   -3.2370    4.7260 c         1 MOL      0.682583
    155 O22         4.1850   -2.3480    5.2470 o         1 MOL     -0.697663
    156 O23         5.4050   -4.0820    5.5060 o         1 MOL     -0.697663
    157 H67         8.1730   -4.5250    0.3570 hn        1 MOL      0.371256
    158 H68         5.7970   -2.8440    0.8690 h1        1 MOL      0.022818
    159 H69         6.9610   -3.2650    3.0600 hc        1 MOL      0.117188
    160 H70         6.2300   -4.9020    2.8920 hc        1 MOL      0.117188
    161 H71         3.9790   -3.8540    3.0090 hc        1 MOL      0.011208
    162 H72         4.7370   -2.2360    2.9670 hc        1 MOL      0.011208
    163 N14         5.6940   -5.3250   -0.9480 n         1 MOL     -0.439538
    164 C55         6.5080   -4.7800   -2.0730 c3        1 MOL     -0.106688
    165 H73         5.9410   -4.8570   -3.0010 h1        1 MOL      0.076911
    166 H74         6.7450   -3.7350   -1.8780 h1        1 MOL      0.076911
    167 H75         7.4320   -5.3520   -2.1650 h1        1 MOL      0.076911
    168 H76         5.0050   -5.9190   -1.3810 hn        1 MOL      0.299800
    169 Ca1        -7.5390    0.6260   -1.7970 Ca        1 MOL      1.716761
    170 O24        -9.0780    1.2000   -3.8280 oh        1 MOL     -0.806748
    171 H77        -9.2710    2.1140   -4.0520 ho        1 MOL      0.398024
    172 H78        -9.8870    0.7270   -4.0190 ho        1 MOL      0.398024
    173 O25        -5.4780    0.2310   -3.4040 oh        1 MOL     -0.806748
    174 H79        -5.9190    0.4680   -4.2160 ho        1 MOL      0.398024
    175 H80        -4.5410    0.3160   -3.6070 ho        1 MOL      0.398024
    176 O26        -6.4740    2.8100   -3.0470 oh        1 MOL     -0.806748
    177 H81        -7.0080    3.5990   -2.9680 ho        1 MOL      0.398024
    178 H82        -5.8160    3.0360   -3.6990 ho        1 MOL      0.398024
    179 O27        -8.6570    3.0510   -1.3970 oh        1 MOL     -0.806748
    180 H83        -9.6070    3.0500   -1.2880 ho        1 MOL      0.398024
    181 H84        -8.4180    3.9790   -1.3980 ho        1 MOL      0.398024
@<TRIPOS>BOND
     1    1    2 1   
     2    1    4 1   
     3    1    5 1   
     4    1    6 1   
     5    2    3 2   
     6    2    7 1   
     7    7    8 1   
     8    7   15 1   
     9    8    9 1   
    10    8   11 1   
    11    8   16 1   
    12    9   10 2   
    13    9   19 1   
    14   11   12 1   
    15   11   17 1   
    16   11   18 1   
    17   12   13 1   
    18   12   14 1   
    19   19   20 1   
    20   19   24 1   
    21   20   21 1   
    22   20   23 1   
    23   20   25 1   
    24   21   22 2   
    25   21   29 1   
    26   23   26 1   
    27   23   27 1   
    28   23   28 1   
    29   29   30 1   
    30   29   37 1   
    31   30   31 1   
    32   30   33 1   
    33   30   38 1   
    34   31   32 2   
    35   31   41 1   
    36   33   34 1   
    37   33   39 1   
    38   33   40 1   
    39   34   35 1   
    40   34   36 1   
    41   41   42 1   
    42   41   45 1   
    43   42   43 1   
    44   42   46 1   
    45   42   47 1   
    46   43   44 2   
    47   43   48 1   
    48   48   49 1   
    49   48   56 1   
    50   49   50 1   
    51   49   52 1   
    52   49   57 1   
    53   50   51 2   
    54   50   62 1   
    55   52   53 1   
    56   52   58 1   
    57   52   59 1   
    58   53   54 1   
    59   53   55 2   
    60   54   60 1   
    61   54   61 1   
    62   62   63 1   
    63   62   66 1   
    64   63   64 1   
    65   63   67 1   
    66   63   68 1   
    67   64   65 2   
    68   64   69 1   
    69   69   70 1   
    70   69   76 1   
    71   70   71 1   
    72   70   73 1   
    73   70   77 1   
    74   71   72 2   
    75   71   83 1   
    76   73   74 1   
    77   73   75 1   
    78   73   78 1   
    79   74   80 1   
    80   74   81 1   
    81   74   82 1   
    82   75   79 1   
    83   83   84 1   
    84   83   91 1   
    85   84   85 1   
    86   84   87 1   
    87   84   92 1   
    88   85   86 2   
    89   85  102 1   
    90   87   88 1   
    91   87   89 1   
    92   87   93 1   
    93   88   90 1   
    94   88   94 1   
    95   88   95 1   
    96   89   96 1   
    97   89   97 1   
    98   89   98 1   
    99   90   99 1   
   100   90  100 1   
   101   90  101 1   
   102  102  103 1   
   103  102  110 1   
   104  103  104 1   
   105  103  106 1   
   106  103  111 1   
   107  104  105 2   
   108  104  114 1   
   109  106  107 1   
   110  106  112 1   
   111  106  113 1   
   112  107  108 1   
   113  107  109 1   
   114  114  115 1   
   115  114  125 1   
   116  115  116 1   
   117  115  118 1   
   118  115  126 1   
   119  116  117 2   
   120  116  134 1   
   121  118  119 1   
   122  118  127 1   
   123  118  128 1   
   124  119  120 ar  
   125  119  121 ar  
   126  120  122 ar  
   127  120  129 1   
   128  121  123 ar  
   129  121  130 1   
   130  122  124 ar  
   131  122  131 1   
   132  123  124 ar  
   133  123  132 1   
   134  124  133 1   
   135  134  135 1   
   136  134  140 1   
   137  135  136 1   
   138  135  138 1   
   139  135  141 1   
   140  136  137 2   
   141  136  148 1   
   142  138  139 1   
   143  138  142 1   
   144  138  143 1   
   145  139  140 1   
   146  139  144 1   
   147  139  145 1   
   148  140  146 1   
   149  140  147 1   
   150  148  149 1   
   151  148  157 1   
   152  149  150 1   
   153  149  152 1   
   154  149  158 1   
   155  150  151 2   
   156  150  163 1   
   157  152  153 1   
   158  152  159 1   
   159  152  160 1   
   160  153  154 1   
   161  153  161 1   
   162  153  162 1   
   163  154  155 1   
   164  154  156 1   
   165  163  164 1   
   166  163  168 1   
   167  164  165 1   
   168  164  166 1   
   169  164  167 1   
   170  170  171 1   
   171  170  172 1   
   172  173  174 1   
   173  173  175 1   
   174  176  177 1   
   175  176  178 1   
   176  179  180 1   
   177  179  181 1   
@<TRIPOS>SUBSTRUCTURE
     1 MOL         1 TEMP              0 ****  ****    0 ROOT
