@<TRIPOS>MOLECULE
MOL
  198   191     1     0     0
SMALL
resp


@<TRIPOS>ATOM
      1 C1          2.0630    3.9140    3.1480 c3        1 MOL     -0.275940
      2 C2          0.9500    3.6820    2.1120 c         1 MOL      0.509161
      3 O1         -0.0980    3.1110    2.5000 o         1 MOL     -0.521600
      4 H1          2.9810    3.4380    2.8070 hc        1 MOL      0.061684
      5 H2          2.2310    4.9840    3.2680 hc        1 MOL      0.061684
      6 H3          1.7660    3.4840    4.1040 hc        1 MOL      0.061684
      7 N1          1.1540    3.9920    0.7990 n         1 MOL     -0.420619
      8 C3          0.2240    3.8650   -0.3560 c3        1 MOL      0.209658
      9 C4         -1.1820    4.4250    0.0110 c         1 MOL      0.319425
     10 O2         -2.2480    3.7930    0.0690 o         1 MOL     -0.428800
     11 C5          0.1730    2.4600   -0.9940 c3        1 MOL     -0.413659
     12 C6         -0.6860    2.4870   -2.2560 c         1 MOL      0.672733
     13 O3         -0.8420    3.5710   -2.8610 o         1 MOL     -0.588411
     14 O4         -1.1930    1.4310   -2.7060 o         1 MOL     -0.588411
     15 H4          2.1000    4.3300    0.6860 hn        1 MOL      0.215660
     16 H5          0.5800    4.5610   -1.1100 h1        1 MOL      0.045145
     17 H6         -0.3820    1.8500   -0.2810 hc        1 MOL      0.143490
     18 H7          1.1500    2.0600   -1.2380 hc        1 MOL      0.143490
     19 N2         -1.2020    5.7270    0.1870 n         1 MOL     -0.373422
     20 C7         -2.3360    6.5010    0.6770 c3        1 MOL     -0.056843
     21 C8         -3.0210    7.2850   -0.5100 c         1 MOL      0.583851
     22 O5         -2.4360    8.0950   -1.2130 o         1 MOL     -0.593643
     23 C9         -1.9500    7.4220    1.8780 c3        1 MOL      0.142588
     24 C10        -1.6900    6.4460    3.1290 c3        1 MOL     -0.065641
     25 C11        -3.1250    8.4120    2.2760 c3        1 MOL     -0.158144
     26 C12        -1.3750    7.2350    4.4580 c3        1 MOL     -0.155640
     27 H8         -0.3550    6.2800    0.1810 hn        1 MOL      0.230121
     28 H9         -3.0440    5.7460    1.0070 h1        1 MOL      0.095524
     29 H10        -1.0540    8.0170    1.7070 hc        1 MOL     -0.009572
     30 H11        -0.8350    5.7820    3.0060 hc        1 MOL      0.082387
     31 H12        -2.5930    5.8720    3.3550 hc        1 MOL      0.082387
     32 H13        -2.6920    9.1660    2.9360 hc        1 MOL      0.034679
     33 H14        -3.6680    8.9560    1.4880 hc        1 MOL      0.034679
     34 H15        -3.8990    7.8710    2.8270 hc        1 MOL      0.034679
     35 H16        -1.1210    6.5220    5.2470 hc        1 MOL      0.018745
     36 H17        -0.6690    8.0590    4.3710 hc        1 MOL      0.018745
     37 H18        -2.3020    7.7350    4.7390 hc        1 MOL      0.018745
     38 N3         -4.4010    7.2470   -0.6380 n         1 MOL     -0.409395
     39 C13        -5.4080    6.3580   -0.0260 c3        1 MOL      0.021159
     40 C14        -5.3320    4.8810   -0.4320 c         1 MOL      0.477643
     41 O6         -5.9710    3.9940    0.1130 o         1 MOL     -0.562220
     42 C15        -6.7950    6.9940   -0.1460 c3        1 MOL     -0.084672
     43 C16        -7.1410    7.3950   -1.6110 c         1 MOL      0.743536
     44 O7         -6.4130    6.9180   -2.5680 o         1 MOL     -0.728128
     45 O8         -8.0070    8.2380   -1.6750 o         1 MOL     -0.728128
     46 H19        -4.7180    7.6210   -1.5280 hn        1 MOL      0.260244
     47 H20        -5.2000    6.2440    1.0450 h1        1 MOL      0.003271
     48 H21        -6.8040    7.9320    0.4210 hc        1 MOL      0.006561
     49 H22        -7.5300    6.3450    0.3200 hc        1 MOL      0.006561
     50 N4         -4.6220    4.5300   -1.5030 n         1 MOL     -0.233937
     51 C17        -4.5220    3.1510   -2.0780 c3        1 MOL     -0.055662
     52 C18        -5.8110    2.3350   -2.5060 c         1 MOL      0.506466
     53 O9         -6.8500    2.9820   -2.7660 o         1 MOL     -0.531130
     54 H23        -4.4830    5.2680   -2.1770 hn        1 MOL      0.247654
     55 H24        -3.8730    2.5330   -1.4540 h1        1 MOL      0.078592
     56 H25        -3.9230    3.2420   -2.9920 h1        1 MOL      0.078592
     57 N5         -5.7050    0.9870   -2.4520 n         1 MOL     -0.471341
     58 C19        -6.8560    0.1590   -2.8290 c3        1 MOL      0.177953
     59 C20        -7.5670   -0.4410   -1.5730 c         1 MOL      0.260807
     60 O10        -8.6060   -1.1110   -1.7670 o         1 MOL     -0.495761
     61 C21        -6.2730   -1.0320   -3.7230 c3        1 MOL     -0.236133
     62 C22        -5.0330   -1.6440   -3.0880 c         1 MOL      0.592400
     63 O11        -3.8930   -1.2060   -3.2690 o         1 MOL     -0.547576
     64 O12        -5.2180   -2.5540   -2.2340 o         1 MOL     -0.547576
     65 H26        -4.7950    0.5820   -2.3140 hn        1 MOL      0.313456
     66 H27        -7.5680    0.6930   -3.4690 h1        1 MOL      0.075335
     67 H28        -6.0660   -0.5900   -4.6970 hc        1 MOL      0.055792
     68 H29        -7.0130   -1.8180   -3.8230 hc        1 MOL      0.055792
     69 N6         -7.0960   -0.0710   -0.3510 n         1 MOL     -0.013418
     70 C23        -7.6990   -0.6010    0.9160 c3        1 MOL     -0.464647
     71 C24        -7.5140   -2.1420    1.1730 c         1 MOL      0.593058
     72 O13        -7.9790   -2.6630    2.1500 o         1 MOL     -0.596086
     73 H30        -6.4040    0.6500   -0.2480 hn        1 MOL      0.198804
     74 H31        -8.7320   -0.2440    0.8720 h1        1 MOL      0.170082
     75 H32        -7.1420   -0.0910    1.7040 h1        1 MOL      0.170082
     76 N7         -6.8980   -2.8400    0.2500 n         1 MOL      0.008455
     77 C25        -6.6430   -4.3010    0.2620 c3        1 MOL      0.062025
     78 C26        -6.0120   -4.9050    1.5570 c         1 MOL      0.563858
     79 O14        -6.4180   -6.0530    1.9070 o         1 MOL     -0.550434
     80 C27        -7.8750   -5.1610   -0.2270 c3        1 MOL      0.084309
     81 C28        -8.4940   -4.6960   -1.5700 c3        1 MOL     -0.022150
     82 C29        -8.9950   -5.8750   -2.4450 c         1 MOL      0.568979
     83 N8         -9.3610   -5.5780   -3.6840 n         1 MOL     -0.720999
     84 O15        -9.0710   -7.0720   -2.0480 o         1 MOL     -0.564572
     85 H33        -6.4710   -2.3440   -0.5210 hn        1 MOL     -0.069472
     86 H34        -5.9280   -4.5110   -0.5340 h1        1 MOL      0.033431
     87 H35        -8.6370   -5.2560    0.5520 hc        1 MOL     -0.019556
     88 H36        -7.5310   -6.1800   -0.4040 hc        1 MOL     -0.019556
     89 H37        -7.8710   -4.0060   -2.1670 hc        1 MOL      0.011026
     90 H38        -9.3270   -4.0080   -1.3920 hc        1 MOL      0.011026
     91 H39        -9.5350   -4.6360   -4.0050 hn        1 MOL      0.322836
     92 H40        -9.8840   -6.2630   -4.2070 hn        1 MOL      0.322836
     93 N9         -5.1080   -4.1880    2.2150 n         1 MOL     -0.474655
     94 C30        -4.5090   -4.5570    3.4890 c3        1 MOL     -0.202976
     95 C31        -2.9790   -4.3040    3.3790 c         1 MOL      0.643349
     96 O16        -2.2540   -4.7880    4.2150 o         1 MOL     -0.588482
     97 C32        -5.0650   -3.7180    4.6670 c3        1 MOL      0.421036
     98 C33        -5.0950   -2.1700    4.6650 c3        1 MOL     -0.419478
     99 C34        -6.3550   -4.3330    5.1540 c3        1 MOL     -0.419478
    100 H41        -4.9410   -3.2920    1.7730 hn        1 MOL      0.269310
    101 H42        -4.6830   -5.6280    3.6160 h1        1 MOL      0.145425
    102 H43        -4.4160   -3.9730    5.5090 hc        1 MOL     -0.037049
    103 H44        -5.6640   -1.8170    3.8030 hc        1 MOL      0.094510
    104 H45        -5.3320   -1.7940    5.6600 hc        1 MOL      0.094510
    105 H46        -4.0720   -1.8360    4.4830 hc        1 MOL      0.094510
    106 H47        -7.1860   -4.1140    4.4830 hc        1 MOL      0.094510
    107 H48        -6.3630   -5.4190    5.1350 hc        1 MOL      0.094510
    108 H49        -6.4900   -3.9240    6.1560 hc        1 MOL      0.094510
    109 N10        -2.4970   -3.3890    2.4780 n         1 MOL     -0.446043
    110 C35        -1.1210   -2.9910    2.4430 c3        1 MOL      0.084975
    111 C36        -0.6590   -3.0720    0.9570 c         1 MOL      0.570184
    112 O17        -1.4250   -3.2640    0.0560 o         1 MOL     -0.528195
    113 C37        -1.0870   -1.4810    2.9610 c3        1 MOL     -0.078062
    114 C38         0.3370   -1.0180    3.2840 c         1 MOL      0.526873
    115 N11         0.5420    0.2760    3.3420 n         1 MOL     -0.661022
    116 O18         1.3080   -1.7830    3.3450 o         1 MOL     -0.535297
    117 H50        -3.1190   -3.1050    1.7400 hn        1 MOL      0.239491
    118 H51        -0.4620   -3.6160    3.0600 h1        1 MOL      0.077091
    119 H52        -1.7600   -1.2600    3.8000 hc        1 MOL      0.060401
    120 H53        -1.4540   -0.8620    2.1490 hc        1 MOL      0.060401
    121 H54        -0.2280    0.9270    3.2050 hn        1 MOL      0.316258
    122 H55         1.4380    0.6390    3.6250 hn        1 MOL      0.316258
    123 N12         0.6270   -2.9210    0.7310 n         1 MOL     -0.432103
    124 C39         1.2920   -3.0350   -0.5960 c3        1 MOL      0.123080
    125 C40         2.7000   -3.6110   -0.3660 c         1 MOL      0.405196
    126 O19         3.1380   -3.5750    0.8110 o         1 MOL     -0.532061
    127 C41         1.3270   -1.6650   -1.2670 c3        1 MOL     -0.324925
    128 C42         2.4120   -0.7550   -0.8810 ca        1 MOL      0.181065
    129 C43         2.2440    0.0700    0.1870 ca        1 MOL     -0.048536
    130 C44         3.5230   -0.5460   -1.7350 ca        1 MOL     -0.048536
    131 C45         3.2370    1.0180    0.5980 ca        1 MOL     -0.406515
    132 C46         4.5350    0.3680   -1.4570 ca        1 MOL     -0.406515
    133 C47         4.3750    1.1800   -0.3170 ca        1 MOL      0.354858
    134 O20         5.3760    2.0000    0.0880 oh        1 MOL     -0.472685
    135 H56         1.2190   -2.6170    1.4820 hn        1 MOL      0.224244
    136 H57         0.6750   -3.7510   -1.1310 h1        1 MOL      0.085203
    137 H58         0.3250   -1.2980   -1.0270 hc        1 MOL      0.132733
    138 H59         1.4550   -1.7760   -2.3430 hc        1 MOL      0.132733
    139 H60         1.3340   -0.0260    0.7600 ha        1 MOL      0.099711
    140 H61         3.6190   -1.1620   -2.6180 ha        1 MOL      0.099711
    141 H62         3.0930    1.6020    1.4970 ha        1 MOL      0.223821
    142 H63         5.4370    0.3070   -2.0480 ha        1 MOL      0.223821
    143 H64         5.1680    2.4630    0.9010 ho        1 MOL      0.358346
    144 N13         3.3870   -4.0660   -1.3820 n         1 MOL     -0.284372
    145 C48         4.7590   -4.5830   -1.3610 c3        1 MOL      0.148767
    146 C49         5.6410   -3.8130   -2.2940 c         1 MOL      0.510780
    147 O21         5.3910   -3.6040   -3.4840 o         1 MOL     -0.558304
    148 C50         4.8340   -6.0440   -1.8320 c3        1 MOL      0.167821
    149 C51         3.7980   -6.8940   -1.1090 c3        1 MOL     -0.305271
    150 C52         3.9780   -8.3780   -1.4640 c         1 MOL      0.780171
    151 O22         4.0900   -9.2800   -0.6150 o         1 MOL     -0.658457
    152 O23         3.9240   -8.6960   -2.6490 o         1 MOL     -0.658457
    153 H65         2.9320   -4.0690   -2.2850 hn        1 MOL      0.225799
    154 H66         5.1720   -4.5690   -0.3530 h1        1 MOL      0.076087
    155 H67         5.8450   -6.4130   -1.6460 hc        1 MOL     -0.030769
    156 H68         4.6900   -6.0770   -2.9080 hc        1 MOL     -0.030769
    157 H69         2.7950   -6.5830   -1.4040 hc        1 MOL      0.056906
    158 H70         3.8830   -6.6910   -0.0430 hc        1 MOL      0.056906
    159 N14         6.8060   -3.2810   -1.8630 n         1 MOL     -0.535264
    160 C53         6.9730   -2.6670   -0.5600 c3        1 MOL      0.023883
    161 C54         7.2690   -3.5850    0.6590 c         1 MOL      0.626253
    162 O24         7.7210   -4.7090    0.5040 o         1 MOL     -0.528407
    163 C55         7.7910   -1.3370   -0.6840 c3        1 MOL      0.561041
    164 C56         9.3080   -1.5780   -0.8980 c3        1 MOL     -0.437218
    165 C57        10.0430   -0.2660   -0.8940 c         1 MOL      0.408687
    166 O25         9.9410    0.5800    0.0460 o         1 MOL     -0.422578
    167 O26        10.6120    0.1200   -1.9610 o         1 MOL     -0.422578
    168 H71         7.3890   -2.7860   -2.5190 hn        1 MOL      0.321714
    169 H72         6.0170   -2.2420   -0.2460 h1        1 MOL     -0.093728
    170 H73         7.7230   -0.9420    0.3330 hc        1 MOL     -0.122867
    171 H74         7.3550   -0.7020   -1.4550 hc        1 MOL     -0.122867
    172 H75         9.5200   -1.9860   -1.8850 hc        1 MOL      0.046960
    173 H76         9.7000   -2.0720   -0.0080 hc        1 MOL      0.046960
    174 N15         6.9400   -3.0930    1.8740 n         1 MOL     -0.394881
    175 C58         7.1620   -3.7680    3.1350 c3        1 MOL     -0.449574
    176 H77         8.0620   -4.3810    3.0650 h1        1 MOL      0.167645
    177 H78         7.2880   -3.0290    3.9260 h1        1 MOL      0.167645
    178 H79         6.3070   -4.4030    3.3640 h1        1 MOL      0.167645
    179 H80         6.5060   -2.1750    1.9350 hn        1 MOL      0.327606
    180 Ca1        10.0380    3.2070    0.0010 Ca        1 MOL      1.584851
    181 O27         7.8060    2.6400   -1.0660 oh        1 MOL     -0.975789
    182 H81         6.9380    2.6510   -0.6550 ho        1 MOL      0.414690
    183 H82         7.6240    2.6110   -2.0080 ho        1 MOL      0.414690
    184 O28        12.0130    4.8770   -0.4030 oh        1 MOL     -0.975789
    185 H83        12.3320    5.7750   -0.4830 ho        1 MOL      0.414690
    186 H84        12.7150    4.4140    0.0690 ho        1 MOL      0.414690
    187 O29        12.5490    2.0690   -0.8320 oh        1 MOL     -0.975789
    188 H85        12.2010    1.2060   -1.0440 ho        1 MOL      0.414690
    189 H86        13.3430    2.1510   -1.3480 ho        1 MOL      0.414690
    190 O30         8.2490    2.4930    1.9930 oh        1 MOL     -0.975789
    191 H87         8.1610    2.4170    2.9460 ho        1 MOL      0.414690
    192 H88         7.6620    1.8230    1.6530 ho        1 MOL      0.414690
    193 O31        10.8990    3.6130   -2.7300 oh        1 MOL     -0.975789
    194 H89        11.6830    4.0410   -2.3740 ho        1 MOL      0.414690
    195 H90        10.9740    3.7370   -3.6790 ho        1 MOL      0.414690
    196 O32        11.7840    2.6420    2.0610 oh        1 MOL     -0.975789
    197 H91        12.6330    2.7990    1.6470 ho        1 MOL      0.414690
    198 H92        11.9860    2.5720    3.0020 ho        1 MOL      0.414690
@<TRIPOS>BOND
     1    1    2 1   
     2    1    4 1   
     3    1    5 1   
     4    1    6 1   
     5    2    3 2   
     6    2    7 1   
     7    7    8 1   
     8    7   15 1   
     9    8    9 1   
    10    8   11 1   
    11    8   16 1   
    12    9   10 2   
    13    9   19 1   
    14   11   12 1   
    15   11   17 1   
    16   11   18 1   
    17   12   13 1   
    18   12   14 1   
    19   19   20 1   
    20   19   27 1   
    21   20   21 1   
    22   20   23 1   
    23   20   28 1   
    24   21   22 2   
    25   21   38 1   
    26   23   24 1   
    27   23   25 1   
    28   23   29 1   
    29   24   26 1   
    30   24   30 1   
    31   24   31 1   
    32   25   32 1   
    33   25   33 1   
    34   25   34 1   
    35   26   35 1   
    36   26   36 1   
    37   26   37 1   
    38   38   39 1   
    39   38   46 1   
    40   39   40 1   
    41   39   42 1   
    42   39   47 1   
    43   40   41 2   
    44   40   50 1   
    45   42   43 1   
    46   42   48 1   
    47   42   49 1   
    48   43   44 1   
    49   43   45 1   
    50   50   51 1   
    51   50   54 1   
    52   51   52 1   
    53   51   55 1   
    54   51   56 1   
    55   52   53 2   
    56   52   57 1   
    57   57   58 1   
    58   57   65 1   
    59   58   59 1   
    60   58   61 1   
    61   58   66 1   
    62   59   60 2   
    63   59   69 1   
    64   61   62 1   
    65   61   67 1   
    66   61   68 1   
    67   62   63 1   
    68   62   64 1   
    69   69   70 1   
    70   69   73 1   
    71   70   71 1   
    72   70   74 1   
    73   70   75 1   
    74   71   72 2   
    75   71   76 1   
    76   76   77 1   
    77   76   85 1   
    78   77   78 1   
    79   77   80 1   
    80   77   86 1   
    81   78   79 2   
    82   78   93 1   
    83   80   81 1   
    84   80   87 1   
    85   80   88 1   
    86   81   82 1   
    87   81   89 1   
    88   81   90 1   
    89   82   83 1   
    90   82   84 2   
    91   83   91 1   
    92   83   92 1   
    93   93   94 1   
    94   93  100 1   
    95   94   95 1   
    96   94   97 1   
    97   94  101 1   
    98   95   96 2   
    99   95  109 1   
   100   97   98 1   
   101   97   99 1   
   102   97  102 1   
   103   98  103 1   
   104   98  104 1   
   105   98  105 1   
   106   99  106 1   
   107   99  107 1   
   108   99  108 1   
   109  109  110 1   
   110  109  117 1   
   111  110  111 1   
   112  110  113 1   
   113  110  118 1   
   114  111  112 2   
   115  111  123 1   
   116  113  114 1   
   117  113  119 1   
   118  113  120 1   
   119  114  115 1   
   120  114  116 2   
   121  115  121 1   
   122  115  122 1   
   123  123  124 1   
   124  123  135 1   
   125  124  125 1   
   126  124  127 1   
   127  124  136 1   
   128  125  126 2   
   129  125  144 1   
   130  127  128 1   
   131  127  137 1   
   132  127  138 1   
   133  128  129 ar  
   134  128  130 ar  
   135  129  131 ar  
   136  129  139 1   
   137  130  132 ar  
   138  130  140 1   
   139  131  133 ar  
   140  131  141 1   
   141  132  133 ar  
   142  132  142 1   
   143  133  134 1   
   144  134  143 1   
   145  144  145 1   
   146  144  153 1   
   147  145  146 1   
   148  145  148 1   
   149  145  154 1   
   150  146  147 2   
   151  146  159 1   
   152  148  149 1   
   153  148  155 1   
   154  148  156 1   
   155  149  150 1   
   156  149  157 1   
   157  149  158 1   
   158  150  151 1   
   159  150  152 1   
   160  159  160 1   
   161  159  168 1   
   162  160  161 1   
   163  160  163 1   
   164  160  169 1   
   165  161  162 2   
   166  161  174 1   
   167  163  164 1   
   168  163  170 1   
   169  163  171 1   
   170  164  165 1   
   171  164  172 1   
   172  164  173 1   
   173  165  166 1   
   174  165  167 1   
   175  174  175 1   
   176  174  179 1   
   177  175  176 1   
   178  175  177 1   
   179  175  178 1   
   180  181  182 1   
   181  181  183 1   
   182  184  185 1   
   183  184  186 1   
   184  187  188 1   
   185  187  189 1   
   186  190  191 1   
   187  190  192 1   
   188  193  194 1   
   189  193  195 1   
   190  196  197 1   
   191  196  198 1   
@<TRIPOS>SUBSTRUCTURE
     1 MOL         1 TEMP              0 ****  ****    0 ROOT
