@<TRIPOS>MOLECULE
MOL
  189   185     1     0     0
SMALL
resp


@<TRIPOS>ATOM
      1 C1         -5.2070   -4.4150    2.9670 c3        1 MOL     -0.438856
      2 C2         -3.9040   -4.0390    2.2550 c         1 MOL      0.723776
      3 O1         -3.3030   -3.0530    2.5460 o         1 MOL     -0.463964
      4 H1         -5.0610   -4.3570    4.0460 hc        1 MOL      0.086240
      5 H2         -5.9970   -3.7250    2.6710 hc        1 MOL      0.086240
      6 H3         -5.4910   -5.4320    2.6940 hc        1 MOL      0.086240
      7 N1         -3.5420   -4.8460    1.2180 n         1 MOL     -0.638557
      8 C3         -2.5400   -4.4020    0.2740 c3        1 MOL     -0.504009
      9 C4         -1.1410   -4.2790    0.9230 c         1 MOL      0.770683
     10 O2         -0.2410   -3.6740    0.3610 o         1 MOL     -0.577559
     11 C5         -2.9600   -3.1800   -0.6150 c3        1 MOL     -0.261508
     12 C6         -4.3820   -3.2190   -0.8880 c         1 MOL      0.893666
     13 O3         -4.8200   -4.1760   -1.5380 o         1 MOL     -0.756168
     14 O4         -5.1170   -2.1800   -0.6600 o         1 MOL     -0.756168
     15 H4         -4.0960   -5.6180    0.8930 hn        1 MOL      0.340054
     16 H5         -2.5530   -5.1880   -0.4680 h1        1 MOL      0.255340
     17 H6         -2.5180   -3.1610   -1.6110 hc        1 MOL      0.145383
     18 H7         -2.6750   -2.2290   -0.1940 hc        1 MOL      0.145383
     19 N2         -0.8410   -5.0810    1.9760 n         1 MOL     -0.399360
     20 C7          0.4690   -5.0550    2.7540 c3        1 MOL     -0.334084
     21 C8          1.3700   -6.2850    2.3280 c         1 MOL      0.497730
     22 O5          1.1990   -7.4490    2.7210 o         1 MOL     -0.571779
     23 C9          0.1910   -4.8770    4.2620 c3        1 MOL      0.442397
     24 C10        -0.7620   -3.7060    4.5760 c3        1 MOL     -0.211828
     25 C11         1.5740   -4.7540    5.0330 c3        1 MOL     -0.257105
     26 C12        -0.9580   -3.5720    6.1460 c3        1 MOL     -0.176129
     27 H8         -1.4770   -5.7890    2.3100 hn        1 MOL      0.332939
     28 H9          0.9640   -4.1320    2.4690 h1        1 MOL      0.129133
     29 H10        -0.3090   -5.7940    4.5700 hc        1 MOL     -0.084198
     30 H11        -1.7140   -3.9870    4.1180 hc        1 MOL      0.106569
     31 H12        -0.3820   -2.7460    4.2240 hc        1 MOL      0.106569
     32 H13         1.7460   -3.6980    5.2330 hc        1 MOL      0.053314
     33 H14         1.4450   -5.2750    5.9810 hc        1 MOL      0.053314
     34 H15         2.4080   -5.1540    4.4520 hc        1 MOL      0.053314
     35 H16        -1.9130   -3.0870    6.3620 hc        1 MOL      0.040226
     36 H17        -1.0560   -4.5960    6.4980 hc        1 MOL      0.040226
     37 H18        -0.1290   -3.1430    6.6980 hc        1 MOL      0.040226
     38 N3          2.4020   -6.0260    1.5180 n         1 MOL     -0.321047
     39 C13         2.8440   -4.8680    0.7100 c3        1 MOL      0.046138
     40 C14         3.2270   -5.3900   -0.7140 c         1 MOL      0.501019
     41 O6          3.4340   -6.6180   -0.8860 o         1 MOL     -0.572855
     42 C15         4.0080   -4.2310    1.4650 c3        1 MOL     -0.040818
     43 C16         4.7490   -3.2480    0.6630 c         1 MOL      0.676801
     44 O7          5.8510   -3.6110    0.1790 o         1 MOL     -0.687954
     45 O8          4.1020   -2.2270    0.2850 o         1 MOL     -0.687954
     46 H19         2.8160   -6.8890    1.2090 hn        1 MOL      0.243694
     47 H20         2.0640   -4.1260    0.5650 h1        1 MOL      0.052338
     48 H21         4.7180   -4.9160    1.9120 hc        1 MOL     -0.011591
     49 H22         3.6440   -3.7040    2.3520 hc        1 MOL     -0.011591
     50 N4          3.2970   -4.4890   -1.6370 n         1 MOL     -0.209557
     51 C17         3.5800   -4.7430   -3.0130 c3        1 MOL     -0.269299
     52 C18         4.5220   -3.6880   -3.6950 c         1 MOL      0.631962
     53 O9          4.8490   -3.8600   -4.8630 o         1 MOL     -0.589851
     54 H23         3.1730   -3.5300   -1.3600 hn        1 MOL      0.233496
     55 H24         2.5770   -4.7740   -3.4500 h1        1 MOL      0.117504
     56 H25         3.9610   -5.7600   -3.0850 h1        1 MOL      0.117504
     57 N5          4.8550   -2.6440   -2.9420 n         1 MOL     -0.481362
     58 C19         5.7070   -1.5770   -3.4520 c3        1 MOL      0.009655
     59 C20         6.8000   -1.0600   -2.4960 c         1 MOL      0.343000
     60 O10         7.6640   -0.3170   -3.0010 o         1 MOL     -0.582094
     61 C21         4.9500   -0.3620   -4.0460 c3        1 MOL     -0.076776
     62 C22         3.9120    0.2840   -3.0690 c         1 MOL      0.666187
     63 O11         4.3680    1.1280   -2.1990 o         1 MOL     -0.665317
     64 O12         2.7380   -0.0680   -3.1470 o         1 MOL     -0.665317
     65 H26         4.4520   -2.5180   -2.0220 hn        1 MOL      0.384274
     66 H27         6.2780   -1.9010   -4.3200 h1        1 MOL      0.104764
     67 H28         4.3810   -0.7090   -4.9150 hc        1 MOL      0.012922
     68 H29         5.5550    0.4000   -4.5460 hc        1 MOL      0.012922
     69 N6          6.7920   -1.3100   -1.1940 n         1 MOL     -0.061899
     70 C23         7.7090   -0.7100   -0.1880 c3        1 MOL     -0.192638
     71 C24         7.7440    0.8350   -0.0700 c         1 MOL      0.516193
     72 O13         8.5240    1.2530    0.7700 o         1 MOL     -0.603304
     73 H30         6.0570   -1.8800   -0.8010 hn        1 MOL      0.125977
     74 H31         8.7020   -1.0850   -0.4410 h1        1 MOL      0.091301
     75 H32         7.3560   -1.0580    0.7850 h1        1 MOL      0.091301
     76 N7          6.9190    1.5940   -0.8080 n         1 MOL      0.045963
     77 C25         6.8410    3.0210   -0.8390 c3        1 MOL     -0.135843
     78 C26         6.3330    3.5860    0.5570 c         1 MOL      0.568553
     79 O14         6.7020    4.7420    0.8470 o         1 MOL     -0.549176
     80 C27         8.0780    3.6620   -1.4250 c3        1 MOL      0.226348
     81 C28         8.2540    3.2290   -2.8650 c3        1 MOL     -0.125559
     82 C29         9.0610    4.3050   -3.7310 c         1 MOL      0.553296
     83 N8         10.1720    3.8860   -4.2270 n         1 MOL     -0.715237
     84 O15         8.7300    5.4890   -3.8230 o         1 MOL     -0.555979
     85 H33         6.2460    1.0570   -1.3500 hn        1 MOL      0.057163
     86 H34         6.0170    3.1560   -1.5480 h1        1 MOL      0.120977
     87 H35         8.9790    3.4550   -0.8330 hc        1 MOL     -0.038632
     88 H36         7.8650    4.7300   -1.4650 hc        1 MOL     -0.038632
     89 H37         7.2480    3.0970   -3.2470 hc        1 MOL      0.024292
     90 H38         8.7430    2.2520   -2.9410 hc        1 MOL      0.024292
     91 H39        10.4750    2.9290   -4.0900 hn        1 MOL      0.331379
     92 H40        10.7450    4.4930   -4.8070 hn        1 MOL      0.331379
     93 N9          5.7050    2.7990    1.4200 n         1 MOL     -0.474476
     94 C30         5.3750    3.1740    2.8720 c3        1 MOL     -0.063146
     95 C31         3.8560    2.7970    3.2920 c         1 MOL      0.595422
     96 O16         3.2470    3.4090    4.1070 o         1 MOL     -0.564013
     97 C32         6.3350    2.5640    3.9200 c3        1 MOL      0.112079
     98 C33         6.5820    1.0730    3.5770 c3        1 MOL     -0.257326
     99 C34         7.7210    3.2520    3.7890 c3        1 MOL     -0.257326
    100 H41         5.5100    1.8440    1.1520 hn        1 MOL      0.232746
    101 H42         5.4700    4.2610    2.9800 h1        1 MOL      0.116262
    102 H43         5.9540    2.6250    4.9290 hc        1 MOL      0.010744
    103 H44         5.6640    0.5260    3.7690 hc        1 MOL      0.065633
    104 H45         6.9640    0.9180    2.5690 hc        1 MOL      0.065633
    105 H46         7.3730    0.6660    4.2180 hc        1 MOL      0.065633
    106 H47         8.0640    3.1530    2.7650 hc        1 MOL      0.065633
    107 H48         7.7080    4.3300    3.9580 hc        1 MOL      0.065633
    108 H49         8.4650    2.7770    4.4360 hc        1 MOL      0.065633
    109 N10         3.3030    1.7690    2.6370 n         1 MOL     -0.416634
    110 C35         1.8450    1.5550    2.6400 c3        1 MOL      0.108261
    111 C36         1.1130    2.3240    1.4760 c         1 MOL      0.657699
    112 O17         1.7490    2.8650    0.5600 o         1 MOL     -0.563281
    113 C37         1.4880    0.0410    2.4400 c3        1 MOL     -0.267511
    114 C38         0.0940   -0.4120    2.7570 c         1 MOL      0.660070
    115 N11        -0.4450   -1.3520    2.0010 n         1 MOL     -0.708725
    116 O18        -0.6300    0.2580    3.4820 o         1 MOL     -0.597044
    117 H50         3.8530    1.3130    1.9190 hn        1 MOL      0.287948
    118 H51         1.4670    1.8770    3.6090 h1        1 MOL      0.068044
    119 H52         2.1310   -0.5530    3.0890 hc        1 MOL      0.078643
    120 H53         1.7070   -0.3270    1.4390 hc        1 MOL      0.078643
    121 H54         0.0400   -2.0090    1.4100 hn        1 MOL      0.349998
    122 H55        -1.4340   -1.4510    2.1570 hn        1 MOL      0.349998
    123 N12        -0.1910    2.4020    1.5050 n         1 MOL     -0.717630
    124 C39        -0.9720    2.8110    0.3290 c3        1 MOL      0.275365
    125 C40        -2.3400    3.2530    0.7030 c         1 MOL      0.630829
    126 O19        -3.0820    2.5230    1.4460 o         1 MOL     -0.610528
    127 C41        -1.0410    1.6770   -0.6810 c3        1 MOL     -0.179783
    128 C42        -2.0620    1.7520   -1.8750 ca        1 MOL      0.047713
    129 C43        -2.3180    2.9890   -2.5610 ca        1 MOL     -0.153906
    130 C44        -2.8660    0.5900   -2.0490 ca        1 MOL     -0.153906
    131 C45        -3.3040    2.9680   -3.5720 ca        1 MOL     -0.268285
    132 C46        -3.8780    0.6290   -3.0650 ca        1 MOL     -0.268285
    133 C47        -4.0990    1.8450   -3.7590 ca        1 MOL      0.280854
    134 O20        -5.0610    1.8740   -4.7220 oh        1 MOL     -0.450798
    135 H56        -0.5600    1.8040    2.2330 hn        1 MOL      0.341787
    136 H57        -0.4490    3.6340   -0.1460 h1        1 MOL      0.054677
    137 H58        -1.3180    0.7600   -0.1700 hc        1 MOL      0.097972
    138 H59        -0.0270    1.5940   -1.0700 hc        1 MOL      0.097972
    139 H60        -1.5830    3.7630   -2.4130 ha        1 MOL      0.122158
    140 H61        -2.7040   -0.3540   -1.5560 ha        1 MOL      0.122158
    141 H62        -3.3470    3.8650   -4.1670 ha        1 MOL      0.180491
    142 H63        -4.4750   -0.2570   -3.1970 ha        1 MOL      0.180491
    143 H64        -5.0800    2.7000   -5.2220 ho        1 MOL      0.331598
    144 N13        -2.8020    4.3950    0.1810 n         1 MOL     -0.678497
    145 C48        -4.2040    4.9580    0.4940 c3        1 MOL      0.293575
    146 C49        -5.0080    4.9010   -0.7860 c         1 MOL      0.598982
    147 O21        -4.7380    5.6590   -1.7230 o         1 MOL     -0.616439
    148 C50        -4.1800    6.4310    1.0130 c3        1 MOL      0.272801
    149 C51        -5.4900    7.0200    1.4750 c3        1 MOL     -0.220342
    150 C52        -5.4110    8.3460    2.2070 c         1 MOL      0.680325
    151 O22        -5.7560    9.3440    1.5390 o         1 MOL     -0.656690
    152 O23        -4.8930    8.4920    3.3530 o         1 MOL     -0.656690
    153 H65        -2.1850    4.9170   -0.4260 hn        1 MOL      0.308901
    154 H66        -4.5850    4.3520    1.3220 h1        1 MOL      0.045250
    155 H67        -3.6850    7.0660    0.2680 hc        1 MOL     -0.071469
    156 H68        -3.4810    6.3940    1.8450 hc        1 MOL     -0.071469
    157 H69        -6.0040    6.3510    2.1700 hc        1 MOL      0.028942
    158 H70        -6.1290    6.9980    0.5880 hc        1 MOL      0.028942
    159 N14        -5.8810    3.9240   -1.0160 n         1 MOL     -0.495832
    160 C53        -6.2350    2.7810   -0.1530 c3        1 MOL     -0.068144
    161 C54        -6.5880    3.1000    1.2890 c         1 MOL      0.416361
    162 O24        -7.1790    4.2080    1.4770 o         1 MOL     -0.543095
    163 C55        -7.3760    2.0490   -0.8320 c3        1 MOL     -0.052992
    164 C56        -6.9200    1.1110   -1.9060 c3        1 MOL     -0.396514
    165 C57        -7.9920    0.0780   -2.2300 c         1 MOL      0.798407
    166 O25        -8.1890   -0.8270   -1.4480 o         1 MOL     -0.741840
    167 O26        -8.7530    0.1740   -3.2930 o         1 MOL     -0.741840
    168 H71        -6.4510    4.0070   -1.8450 hn        1 MOL      0.309372
    169 H72        -5.4000    2.0910   -0.1760 h1        1 MOL      0.156319
    170 H73        -8.1050    2.6700   -1.3560 hc        1 MOL      0.040547
    171 H74        -7.8630    1.3940   -0.1100 hc        1 MOL      0.040547
    172 H75        -5.9720    0.6600   -1.5850 hc        1 MOL      0.133315
    173 H76        -6.7630    1.7720   -2.7570 hc        1 MOL      0.133315
    174 N15        -6.2700    2.2490    2.2600 n         1 MOL     -0.128469
    175 C58        -6.4900    2.5690    3.6790 c3        1 MOL     -0.478147
    176 H77        -5.6440    2.2150    4.2660 h1        1 MOL      0.168605
    177 H78        -6.5870    3.6480    3.7970 h1        1 MOL      0.168605
    178 H79        -7.4010    2.0820    4.0250 h1        1 MOL      0.168605
    179 H80        -5.8220    1.4080    1.9390 hn        1 MOL      0.218191
    180 Ca1        -7.4260   -3.1730   -1.6130 Ca        1 MOL      1.467730
    181 O27        -8.2230   -5.7360   -2.3280 oh        1 MOL     -0.737601
    182 H81        -9.0390   -5.9170   -1.8750 ho        1 MOL      0.348636
    183 H82        -7.7650   -6.5740   -2.3650 ho        1 MOL      0.348636
    184 O28        -9.3600   -3.4440   -3.5720 oh        1 MOL     -0.737601
    185 H83        -9.8740   -2.8760   -4.1370 ho        1 MOL      0.348636
    186 H84        -9.8260   -4.2810   -3.5540 ho        1 MOL      0.348636
    187 O29        -6.4860   -2.5420   -3.9660 oh        1 MOL     -0.737601
    188 H85        -5.6320   -2.6640   -4.3790 ho        1 MOL      0.348636
    189 H86        -7.0510   -2.2220   -4.6700 ho        1 MOL      0.348636
@<TRIPOS>BOND
     1    1    2 1   
     2    1    4 1   
     3    1    5 1   
     4    1    6 1   
     5    2    3 2   
     6    2    7 1   
     7    7    8 1   
     8    7   15 1   
     9    8    9 1   
    10    8   11 1   
    11    8   16 1   
    12    9   10 2   
    13    9   19 1   
    14   11   12 1   
    15   11   17 1   
    16   11   18 1   
    17   12   13 1   
    18   12   14 1   
    19   19   20 1   
    20   19   27 1   
    21   20   21 1   
    22   20   23 1   
    23   20   28 1   
    24   21   22 2   
    25   21   38 1   
    26   23   24 1   
    27   23   25 1   
    28   23   29 1   
    29   24   26 1   
    30   24   30 1   
    31   24   31 1   
    32   25   32 1   
    33   25   33 1   
    34   25   34 1   
    35   26   35 1   
    36   26   36 1   
    37   26   37 1   
    38   38   39 1   
    39   38   46 1   
    40   39   40 1   
    41   39   42 1   
    42   39   47 1   
    43   40   41 2   
    44   40   50 1   
    45   42   43 1   
    46   42   48 1   
    47   42   49 1   
    48   43   44 1   
    49   43   45 1   
    50   50   51 1   
    51   50   54 1   
    52   51   52 1   
    53   51   55 1   
    54   51   56 1   
    55   52   53 2   
    56   52   57 1   
    57   57   58 1   
    58   57   65 1   
    59   58   59 1   
    60   58   61 1   
    61   58   66 1   
    62   59   60 2   
    63   59   69 1   
    64   61   62 1   
    65   61   67 1   
    66   61   68 1   
    67   62   63 1   
    68   62   64 1   
    69   69   70 1   
    70   69   73 1   
    71   70   71 1   
    72   70   74 1   
    73   70   75 1   
    74   71   72 2   
    75   71   76 1   
    76   76   77 1   
    77   76   85 1   
    78   77   78 1   
    79   77   80 1   
    80   77   86 1   
    81   78   79 2   
    82   78   93 1   
    83   80   81 1   
    84   80   87 1   
    85   80   88 1   
    86   81   82 1   
    87   81   89 1   
    88   81   90 1   
    89   82   83 1   
    90   82   84 2   
    91   83   91 1   
    92   83   92 1   
    93   93   94 1   
    94   93  100 1   
    95   94   95 1   
    96   94   97 1   
    97   94  101 1   
    98   95   96 2   
    99   95  109 1   
   100   97   98 1   
   101   97   99 1   
   102   97  102 1   
   103   98  103 1   
   104   98  104 1   
   105   98  105 1   
   106   99  106 1   
   107   99  107 1   
   108   99  108 1   
   109  109  110 1   
   110  109  117 1   
   111  110  111 1   
   112  110  113 1   
   113  110  118 1   
   114  111  112 2   
   115  111  123 1   
   116  113  114 1   
   117  113  119 1   
   118  113  120 1   
   119  114  115 1   
   120  114  116 2   
   121  115  121 1   
   122  115  122 1   
   123  123  124 1   
   124  123  135 1   
   125  124  125 1   
   126  124  127 1   
   127  124  136 1   
   128  125  126 2   
   129  125  144 1   
   130  127  128 1   
   131  127  137 1   
   132  127  138 1   
   133  128  129 ar  
   134  128  130 ar  
   135  129  131 ar  
   136  129  139 1   
   137  130  132 ar  
   138  130  140 1   
   139  131  133 ar  
   140  131  141 1   
   141  132  133 ar  
   142  132  142 1   
   143  133  134 1   
   144  134  143 1   
   145  144  145 1   
   146  144  153 1   
   147  145  146 1   
   148  145  148 1   
   149  145  154 1   
   150  146  147 2   
   151  146  159 1   
   152  148  149 1   
   153  148  155 1   
   154  148  156 1   
   155  149  150 1   
   156  149  157 1   
   157  149  158 1   
   158  150  151 1   
   159  150  152 1   
   160  159  160 1   
   161  159  168 1   
   162  160  161 1   
   163  160  163 1   
   164  160  169 1   
   165  161  162 2   
   166  161  174 1   
   167  163  164 1   
   168  163  170 1   
   169  163  171 1   
   170  164  165 1   
   171  164  172 1   
   172  164  173 1   
   173  165  166 1   
   174  165  167 1   
   175  174  175 1   
   176  174  179 1   
   177  175  176 1   
   178  175  177 1   
   179  175  178 1   
   180  181  182 1   
   181  181  183 1   
   182  184  185 1   
   183  184  186 1   
   184  187  188 1   
   185  187  189 1   
@<TRIPOS>SUBSTRUCTURE
     1 MOL         1 TEMP              0 ****  ****    0 ROOT
