@<TRIPOS>MOLECULE
MOL
  195   189     1     0     0
SMALL
resp


@<TRIPOS>ATOM
      1 C1        -10.7870   -5.2280    1.3500 c3        1 MOL     -0.400715
      2 C2         -9.3920   -4.5610    1.1180 c         1 MOL      0.736179
      3 O1         -8.4370   -5.3110    1.0250 o         1 MOL     -0.627997
      4 H1        -11.0390   -5.8510    0.4910 hc        1 MOL      0.101800
      5 H2        -10.7510   -5.8460    2.2470 hc        1 MOL      0.101800
      6 H3        -11.5450   -4.4550    1.4720 hc        1 MOL      0.101800
      7 N1         -9.3680   -3.2650    0.9770 n         1 MOL     -0.493246
      8 C3         -8.1310   -2.5040    0.5780 c3        1 MOL      0.029043
      9 C4         -6.9720   -2.7170    1.6150 c         1 MOL      0.414406
     10 O2         -7.1360   -2.5940    2.8210 o         1 MOL     -0.469820
     11 C5         -8.4650   -1.0100    0.3930 c3        1 MOL     -0.126760
     12 C6         -9.1940   -0.7200   -0.8860 c         1 MOL      0.691095
     13 O3        -10.4300   -0.8970   -0.9000 o         1 MOL     -0.685146
     14 O4         -8.5130   -0.4580   -1.9280 o         1 MOL     -0.685146
     15 H4        -10.2160   -2.7180    1.0110 hn        1 MOL      0.311443
     16 H5         -7.7980   -2.9120   -0.3740 h1        1 MOL      0.054927
     17 H6         -7.5480   -0.4230    0.3610 hc        1 MOL      0.019779
     18 H7         -9.0320   -0.5880    1.2280 hc        1 MOL      0.019779
     19 N2         -5.7110   -2.9420    1.1710 n         1 MOL     -0.287835
     20 C7         -4.4980   -3.0250    2.0980 c3        1 MOL      0.030236
     21 C8         -4.0870   -1.7070    2.7080 c         1 MOL      0.395183
     22 O5         -3.5790   -1.7180    3.7860 o         1 MOL     -0.508548
     23 C9         -3.2790   -3.7600    1.4850 c3        1 MOL      0.041822
     24 C10        -3.4060   -5.2780    1.4570 c3        1 MOL     -0.187941
     25 C11        -4.1510   -5.8930    0.2540 c3        1 MOL     -0.175658
     26 C12        -3.7950   -5.3230   -1.1370 c3        1 MOL      0.200804
     27 N3         -4.3260   -6.1070   -2.2670 n4        1 MOL     -0.473276
     28 H8         -5.5920   -3.0240    0.1690 hn        1 MOL      0.153774
     29 H9         -4.7730   -3.5730    3.0020 h1        1 MOL      0.110174
     30 H10        -2.4260   -3.4970    2.1100 hc        1 MOL      0.072988
     31 H11        -3.1000   -3.3670    0.4860 hc        1 MOL      0.072988
     32 H12        -3.8940   -5.4950    2.4020 hc        1 MOL      0.077423
     33 H13        -2.4090   -5.7120    1.5450 hc        1 MOL      0.077423
     34 H14        -5.2020   -5.6090    0.3520 hc        1 MOL      0.089075
     35 H15        -4.0970   -6.9790    0.2760 hc        1 MOL      0.089075
     36 H16        -2.7100   -5.4100   -1.2420 hx        1 MOL      0.042584
     37 H17        -3.9820   -4.2710   -1.3210 hx        1 MOL      0.042584
     38 H18        -5.2900   -5.8950   -2.4850 hn        1 MOL      0.342852
     39 H19        -3.7700   -5.8800   -3.0770 hn        1 MOL      0.342852
     40 H20        -4.1770   -7.1090   -2.1440 hn        1 MOL      0.342852
     41 N4         -4.1880   -0.4700    2.1580 n         1 MOL     -0.218841
     42 C13        -4.6940   -0.0220    0.9250 c3        1 MOL     -0.005022
     43 C14        -5.2310    1.4240    0.9630 c         1 MOL      0.357304
     44 O6         -4.8980    2.1230    1.9090 o         1 MOL     -0.505441
     45 C15        -3.6170   -0.1480   -0.1560 c3        1 MOL     -0.515780
     46 C16        -2.4030    0.7840    0.1700 c         1 MOL      0.851282
     47 O7         -2.3900    1.9230   -0.2920 o         1 MOL     -0.738404
     48 O8         -1.4600    0.3540    0.8890 o         1 MOL     -0.738404
     49 H21        -4.0220    0.2990    2.7940 hn        1 MOL      0.262673
     50 H22        -5.5010   -0.6750    0.5930 h1        1 MOL      0.146638
     51 H23        -3.8930    0.1190   -1.1700 hc        1 MOL      0.072800
     52 H24        -3.1410   -1.1360   -0.1760 hc        1 MOL      0.072800
     53 N5         -5.9880    1.8660   -0.0070 n         1 MOL      0.080675
     54 C17        -6.6550    3.1740    0.0210 c3        1 MOL     -0.514025
     55 C18        -5.7340    4.3980   -0.1450 c         1 MOL      0.542621
     56 O9         -6.2750    5.4730   -0.4150 o         1 MOL     -0.514430
     57 H25        -6.2170    1.1680   -0.7070 hn        1 MOL      0.126007
     58 H26        -7.1350    3.3250    0.9900 h1        1 MOL      0.204234
     59 H27        -7.4620    3.1710   -0.7180 h1        1 MOL      0.204234
     60 N6         -4.3980    4.2440   -0.1430 n         1 MOL     -0.192526
     61 C19        -3.4690    5.1500   -0.7780 c3        1 MOL     -0.001034
     62 C20        -3.9060    5.8150   -2.0910 c         1 MOL      0.498568
     63 O10        -4.0740    7.0300   -2.1610 o         1 MOL     -0.525720
     64 C21        -2.9330    6.1970    0.2970 c3        1 MOL      0.152266
     65 C22        -2.5290    5.5020    1.6130 c         1 MOL      0.498580
     66 O11        -3.0970    5.9450    2.6790 o         1 MOL     -0.631311
     67 O12        -1.6360    4.6240    1.6450 o         1 MOL     -0.631311
     68 H28        -4.1220    3.2750   -0.0290 hn        1 MOL      0.129690
     69 H29        -2.5920    4.5410   -1.0020 h1        1 MOL      0.022144
     70 H30        -3.5570    7.0640    0.4900 hc        1 MOL     -0.026853
     71 H31        -1.9400    6.5550   -0.0050 hc        1 MOL     -0.026853
     72 N7         -4.0130    5.0870   -3.2540 n         1 MOL     -0.405848
     73 C23        -3.6020    3.6800   -3.4530 c3        1 MOL     -0.063098
     74 C24        -2.0400    3.5130   -3.6240 c         1 MOL      0.393716
     75 O13        -1.4900    3.8120   -4.6720 o         1 MOL     -0.562313
     76 H32        -4.5210    5.5190   -4.0230 hn        1 MOL      0.299086
     77 H33        -4.0970    3.3480   -4.3730 h1        1 MOL      0.078924
     78 H34        -3.9920    3.1040   -2.6180 h1        1 MOL      0.078924
     79 N8         -1.3050    2.9430   -2.7050 n         1 MOL     -0.009490
     80 C25         0.1980    2.7520   -2.7770 c3        1 MOL     -0.115741
     81 C26         0.4910    1.3960   -2.2140 c         1 MOL      0.554869
     82 O14         0.3430    1.2700   -0.9910 o         1 MOL     -0.517963
     83 C27         1.0910    3.8630   -2.0870 c3        1 MOL      0.539579
     84 C28         2.5110    3.3720   -2.1210 c3        1 MOL     -0.540254
     85 O15         0.7230    4.1380   -0.7420 oh        1 MOL     -0.892516
     86 H35        -1.7890    2.4920   -1.9410 hn        1 MOL      0.109133
     87 H36         0.4570    2.6310   -3.8260 h1        1 MOL      0.036316
     88 H37         1.0880    4.7370   -2.7340 h1        1 MOL     -0.006426
     89 H38         1.1310    4.9400   -0.4050 ho        1 MOL      0.491610
     90 H39         3.2070    4.1870   -1.9530 hc        1 MOL      0.143140
     91 H40         2.6930    2.6560   -1.3200 hc        1 MOL      0.143140
     92 H41         2.6690    2.9730   -3.1270 hc        1 MOL      0.143140
     93 N9          0.7800    0.4240   -3.0850 n         1 MOL     -0.574958
     94 C29         0.6700   -1.0410   -2.9000 c3        1 MOL     -0.016475
     95 C30         1.8150   -1.5320   -1.9400 c         1 MOL      0.613879
     96 O16         2.2370   -0.9480   -0.8760 o         1 MOL     -0.556830
     97 C31        -0.7430   -1.4770   -2.4680 c3        1 MOL      0.189390
     98 C32        -1.8030   -1.1880   -3.5100 c3        1 MOL      0.080929
     99 C33        -0.8530   -2.9240   -1.9340 c3        1 MOL      0.177440
    100 C34        -1.7760   -1.9770   -4.8170 c3        1 MOL     -0.189465
    101 H42         0.8820    0.6360   -4.0670 hn        1 MOL      0.351029
    102 H43         0.9660   -1.5260   -3.8350 h1        1 MOL      0.060911
    103 H44        -0.9720   -0.8590   -1.6040 hc        1 MOL      0.045062
    104 H45        -1.8760   -0.1180   -3.7400 hc        1 MOL      0.011560
    105 H46        -2.7610   -1.4220   -3.0450 hc        1 MOL      0.011560
    106 H47        -1.7950   -3.1610   -1.4550 hc        1 MOL     -0.103785
    107 H48        -0.6650   -3.6190   -2.7440 hc        1 MOL     -0.103785
    108 H49        -0.1050   -3.0520   -1.1540 hc        1 MOL     -0.103785
    109 H50        -1.7750   -3.0360   -4.5590 hc        1 MOL      0.030141
    110 H51        -2.6780   -1.7080   -5.3550 hc        1 MOL      0.030141
    111 H52        -0.8280   -1.7820   -5.3250 hc        1 MOL      0.030141
    112 N10         2.5020   -2.6310   -2.2790 n         1 MOL     -0.574652
    113 C35         3.4840   -3.2910   -1.4310 c3        1 MOL      0.285969
    114 C36         4.9270   -3.1740   -1.8390 c         1 MOL      0.216764
    115 O17         5.8090   -3.8030   -1.1900 o         1 MOL     -0.504144
    116 C37         3.0690   -4.7890   -1.2650 c3        1 MOL      0.398226
    117 C38         3.2330   -5.6230   -2.5100 c3        1 MOL     -0.401280
    118 O18         1.9020   -4.9620   -0.5420 oh        1 MOL     -0.601793
    119 H53         2.1050   -3.1620   -3.0410 hn        1 MOL      0.270581
    120 H54         3.4650   -2.9250   -0.4030 h1        1 MOL      0.054551
    121 H55         3.8800   -5.0910   -0.5960 h1        1 MOL     -0.011979
    122 H56         1.4480   -5.6770   -1.0030 ho        1 MOL      0.370238
    123 H57         2.6890   -5.2750   -3.3900 hc        1 MOL      0.095928
    124 H58         4.2930   -5.7380   -2.7010 hc        1 MOL      0.095928
    125 H59         2.8810   -6.6270   -2.2520 hc        1 MOL      0.095928
    126 N11         5.1500   -2.3100   -2.7780 n         1 MOL      0.029455
    127 C39         6.4440   -1.7700   -3.0740 c3        1 MOL     -0.212763
    128 C40         7.0350   -0.9450   -2.0000 c         1 MOL      0.470394
    129 O19         6.8080    0.2850   -1.9580 o         1 MOL     -0.496024
    130 C41         6.3520   -0.9160   -4.3600 c3        1 MOL      0.436780
    131 C42         6.1870   -1.6450   -5.7140 c3        1 MOL     -0.491684
    132 O20         5.2040   -0.1580   -4.3230 oh        1 MOL     -0.591996
    133 H60         4.4530   -2.1030   -3.4780 hn        1 MOL      0.125794
    134 H61         7.1510   -2.5560   -3.3460 h1        1 MOL      0.071352
    135 H62         7.1810   -0.2110   -4.3590 h1        1 MOL     -0.009600
    136 H63         5.1180    0.2160   -3.4460 ho        1 MOL      0.375767
    137 H64         5.1560   -1.9640   -5.8930 hc        1 MOL      0.135212
    138 H65         6.4370   -0.8650   -6.4470 hc        1 MOL      0.135212
    139 H66         6.8600   -2.4870   -5.8350 hc        1 MOL      0.135212
    140 N12         7.5480   -1.5530   -0.9080 n         1 MOL     -0.483529
    141 C43         7.9530   -0.9490    0.3850 c3        1 MOL      0.131247
    142 C44         6.6940   -0.4090    1.0810 c         1 MOL      0.624091
    143 O21         5.7720    0.0810    0.4650 o         1 MOL     -0.443770
    144 C45         9.0610    0.1000    0.2720 c3        1 MOL     -0.134163
    145 C46        10.3950   -0.5880   -0.1830 c3        1 MOL     -0.001282
    146 C47        11.6480    0.3210   -0.0030 c3        1 MOL     -0.017473
    147 C48        11.5490    1.5480   -0.8700 c3        1 MOL     -0.053831
    148 N13        12.0780    1.2630   -2.1990 n4        1 MOL     -0.140807
    149 H67         7.5620   -2.5620   -0.9540 hn        1 MOL      0.279443
    150 H68         8.3760   -1.6900    1.0540 h1        1 MOL      0.071713
    151 H69         9.3300    0.3690    1.2890 hc        1 MOL      0.071006
    152 H70         8.7620    1.0270   -0.2300 hc        1 MOL      0.071006
    153 H71        10.4270   -0.8710   -1.2280 hc        1 MOL      0.008672
    154 H72        10.5590   -1.4750    0.4340 hc        1 MOL      0.008672
    155 H73        12.5240   -0.2880   -0.2270 hc        1 MOL      0.048291
    156 H74        11.7470    0.6840    1.0180 hc        1 MOL      0.048291
    157 H75        12.0180    2.4030   -0.3700 hx        1 MOL      0.103678
    158 H76        10.5150    1.8600   -0.9780 hx        1 MOL      0.103678
    159 H77        11.5510    0.7620   -2.8940 hn        1 MOL      0.208144
    160 H78        12.1100    2.0750   -2.8040 hn        1 MOL      0.208144
    161 H79        13.0440    0.9840   -2.1900 hn        1 MOL      0.208144
    162 N14         6.8090   -0.4150    2.4290 n         1 MOL     -0.689144
    163 C49         5.7280    0.1020    3.3470 c3        1 MOL      0.278340
    164 C50         4.3140   -0.5380    3.2060 c         1 MOL      0.216863
    165 O22         3.3290    0.2470    3.1660 o         1 MOL     -0.583670
    166 C51         6.1690    0.0770    4.7730 c3        1 MOL      0.077387
    167 C52         5.3010    0.6790    5.8310 c3        1 MOL     -0.182524
    168 C53         5.8340    0.4240    7.2480 c         1 MOL      0.706369
    169 O23         6.9570   -0.1320    7.4470 o         1 MOL     -0.663073
    170 O24         5.0530    0.7660    8.1900 o         1 MOL     -0.663073
    171 H80         7.5720   -0.8610    2.9140 hn        1 MOL      0.307736
    172 H81         5.5640    1.1500    3.1030 h1        1 MOL      0.050979
    173 H82         7.0920    0.6370    4.8150 hc        1 MOL     -0.022654
    174 H83         6.3650   -0.9340    5.1430 hc        1 MOL     -0.022654
    175 H84         4.3540    0.1440    5.7730 hc        1 MOL      0.047634
    176 H85         5.1500    1.7520    5.7380 hc        1 MOL      0.047634
    177 N15         4.0700   -1.8540    3.1010 n         1 MOL     -0.123876
    178 C54         5.0590   -2.8640    3.4400 c3        1 MOL     -0.129656
    179 H86         5.2690   -2.8220    4.5090 h1        1 MOL      0.073219
    180 H87         4.6740   -3.8510    3.1850 h1        1 MOL      0.073219
    181 H88         5.9770   -2.6760    2.8820 h1        1 MOL      0.073219
    182 H89         3.1100   -2.1510    3.0750 hn        1 MOL      0.287581
    183 Ca1        -0.1630    2.6200    1.3370 Ca        1 MOL      1.748979
    184 O25         1.6690    4.2650    2.1130 oh        1 MOL     -0.878493
    185 H90         2.1730    3.9290    2.8610 ho        1 MOL      0.435019
    186 H91         2.0680    5.1070    1.9030 ho        1 MOL      0.435019
    187 O26        -1.9330    2.4390    3.3260 oh        1 MOL     -0.878493
    188 H92        -2.5150    3.0880    2.9360 ho        1 MOL      0.435019
    189 H93        -2.2940    2.2620    4.1880 ho        1 MOL      0.435019
    190 O27         1.0410    1.8100    3.5540 oh        1 MOL     -0.878493
    191 H94         1.7170    1.2140    3.2300 ho        1 MOL      0.435019
    192 H95         1.2090    1.8620    4.4930 ho        1 MOL      0.435019
    193 O28         2.3500    1.2760    0.8730 oh        1 MOL     -0.878493
    194 H96         2.3510    0.6860    0.1210 ho        1 MOL      0.435019
    195 H97         2.7770    0.7790    1.5620 ho        1 MOL      0.435019
@<TRIPOS>BOND
     1    1    2 1   
     2    1    4 1   
     3    1    5 1   
     4    1    6 1   
     5    2    3 2   
     6    2    7 1   
     7    7    8 1   
     8    7   15 1   
     9    8    9 1   
    10    8   11 1   
    11    8   16 1   
    12    9   10 2   
    13    9   19 1   
    14   11   12 1   
    15   11   17 1   
    16   11   18 1   
    17   12   13 1   
    18   12   14 1   
    19   19   20 1   
    20   19   28 1   
    21   20   21 1   
    22   20   23 1   
    23   20   29 1   
    24   21   22 2   
    25   21   41 1   
    26   23   24 1   
    27   23   30 1   
    28   23   31 1   
    29   24   25 1   
    30   24   32 1   
    31   24   33 1   
    32   25   26 1   
    33   25   34 1   
    34   25   35 1   
    35   26   27 1   
    36   26   36 1   
    37   26   37 1   
    38   27   38 1   
    39   27   39 1   
    40   27   40 1   
    41   41   42 1   
    42   41   49 1   
    43   42   43 1   
    44   42   45 1   
    45   42   50 1   
    46   43   44 2   
    47   43   53 1   
    48   45   46 1   
    49   45   51 1   
    50   45   52 1   
    51   46   47 1   
    52   46   48 1   
    53   53   54 1   
    54   53   57 1   
    55   54   55 1   
    56   54   58 1   
    57   54   59 1   
    58   55   56 2   
    59   55   60 1   
    60   60   61 1   
    61   60   68 1   
    62   61   62 1   
    63   61   64 1   
    64   61   69 1   
    65   62   63 2   
    66   62   72 1   
    67   64   65 1   
    68   64   70 1   
    69   64   71 1   
    70   65   66 1   
    71   65   67 1   
    72   72   73 1   
    73   72   76 1   
    74   73   74 1   
    75   73   77 1   
    76   73   78 1   
    77   74   75 2   
    78   74   79 1   
    79   79   80 1   
    80   79   86 1   
    81   80   81 1   
    82   80   83 1   
    83   80   87 1   
    84   81   82 2   
    85   81   93 1   
    86   83   84 1   
    87   83   85 1   
    88   83   88 1   
    89   84   90 1   
    90   84   91 1   
    91   84   92 1   
    92   85   89 1   
    93   93   94 1   
    94   93  101 1   
    95   94   95 1   
    96   94   97 1   
    97   94  102 1   
    98   95   96 2   
    99   95  112 1   
   100   97   98 1   
   101   97   99 1   
   102   97  103 1   
   103   98  100 1   
   104   98  104 1   
   105   98  105 1   
   106   99  106 1   
   107   99  107 1   
   108   99  108 1   
   109  100  109 1   
   110  100  110 1   
   111  100  111 1   
   112  112  113 1   
   113  112  119 1   
   114  113  114 1   
   115  113  116 1   
   116  113  120 1   
   117  114  115 2   
   118  114  126 1   
   119  116  117 1   
   120  116  118 1   
   121  116  121 1   
   122  117  123 1   
   123  117  124 1   
   124  117  125 1   
   125  118  122 1   
   126  126  127 1   
   127  126  133 1   
   128  127  128 1   
   129  127  130 1   
   130  127  134 1   
   131  128  129 2   
   132  128  140 1   
   133  130  131 1   
   134  130  132 1   
   135  130  135 1   
   136  131  137 1   
   137  131  138 1   
   138  131  139 1   
   139  132  136 1   
   140  140  141 1   
   141  140  149 1   
   142  141  142 1   
   143  141  144 1   
   144  141  150 1   
   145  142  143 2   
   146  142  162 1   
   147  144  145 1   
   148  144  151 1   
   149  144  152 1   
   150  145  146 1   
   151  145  153 1   
   152  145  154 1   
   153  146  147 1   
   154  146  155 1   
   155  146  156 1   
   156  147  148 1   
   157  147  157 1   
   158  147  158 1   
   159  148  159 1   
   160  148  160 1   
   161  148  161 1   
   162  162  163 1   
   163  162  171 1   
   164  163  164 1   
   165  163  166 1   
   166  163  172 1   
   167  164  165 2   
   168  164  177 1   
   169  166  167 1   
   170  166  173 1   
   171  166  174 1   
   172  167  168 1   
   173  167  175 1   
   174  167  176 1   
   175  168  169 1   
   176  168  170 1   
   177  177  178 1   
   178  177  182 1   
   179  178  179 1   
   180  178  180 1   
   181  178  181 1   
   182  184  185 1   
   183  184  186 1   
   184  187  188 1   
   185  187  189 1   
   186  190  191 1   
   187  190  192 1   
   188  193  194 1   
   189  193  195 1   
@<TRIPOS>SUBSTRUCTURE
     1 MOL         1 TEMP              0 ****  ****    0 ROOT
