@<TRIPOS>MOLECULE
MOL
  192   187     1     0     0
SMALL
resp


@<TRIPOS>ATOM
      1 C1          4.7110    4.0610   -3.6430 c3        1 MOL     -0.373807
      2 C2          5.3230    3.2600   -2.4310 c         1 MOL      0.904006
      3 O1          4.7120    2.8610   -1.4300 o         1 MOL     -0.776558
      4 H1          5.1080    5.0760   -3.6450 hc        1 MOL      0.089062
      5 H2          4.9750    3.5650   -4.5770 hc        1 MOL      0.089062
      6 H3          3.6260    4.0970   -3.5450 hc        1 MOL      0.089062
      7 N1          6.5260    2.7790   -2.5990 n         1 MOL     -0.693138
      8 C3          7.2900    1.5770   -2.0330 c3        1 MOL      0.258384
      9 C4          6.3560    0.4220   -1.7840 c         1 MOL      0.311439
     10 O2          5.7730    0.3240   -0.7330 o         1 MOL     -0.534640
     11 C5          8.1450    1.9150   -0.7320 c3        1 MOL      0.001183
     12 C6          7.5850    3.1460   -0.0470 c         1 MOL      0.725189
     13 O3          6.7930    3.0200    0.8990 o         1 MOL     -0.747013
     14 O4          8.1030    4.2500   -0.3810 o         1 MOL     -0.747013
     15 H4          7.0330    3.2840   -3.3190 hn        1 MOL      0.297384
     16 H5          7.9890    1.2620   -2.8030 h1        1 MOL      0.010671
     17 H6          9.1090    2.2110   -1.1470 hc        1 MOL     -0.016294
     18 H7          8.3090    1.0630   -0.0690 hc        1 MOL     -0.016294
     19 N2          5.8710   -0.2010   -2.8550 n         1 MOL     -0.339367
     20 C7          5.0020   -1.4190   -3.0610 c3        1 MOL      0.079825
     21 C8          5.5210   -2.6730   -2.3170 c         1 MOL      0.302289
     22 O5          5.9110   -3.6810   -2.9060 o         1 MOL     -0.514063
     23 C9          3.4990   -1.1830   -2.7770 c3        1 MOL      0.209282
     24 C10         2.5900   -2.3420   -3.3170 c3        1 MOL      0.044160
     25 C11         3.0240    0.1910   -3.3280 c3        1 MOL     -0.200267
     26 C12         2.5920   -2.7080   -4.7840 c3        1 MOL     -0.090787
     27 H8          6.2130    0.1890   -3.7240 hn        1 MOL      0.238668
     28 H9          5.0380   -1.7530   -4.1060 h1        1 MOL      0.040923
     29 H10         3.3450   -1.0890   -1.6960 hc        1 MOL     -0.028936
     30 H11         1.5710   -2.1260   -2.9700 hc        1 MOL      0.013346
     31 H12         2.8180   -3.2440   -2.7460 hc        1 MOL      0.013346
     32 H13         3.5630    0.9270   -2.7380 hc        1 MOL      0.026433
     33 H14         3.4500    0.4210   -4.3100 hc        1 MOL      0.026433
     34 H15         1.9740    0.4260   -3.1680 hc        1 MOL      0.026433
     35 H16         3.5750   -3.1320   -5.0180 hc        1 MOL     -0.001597
     36 H17         1.7420   -3.3680   -4.9570 hc        1 MOL     -0.001597
     37 H18         2.4480   -1.8270   -5.4110 hc        1 MOL     -0.001597
     38 N3          5.6730   -2.6330   -0.9720 n         1 MOL     -0.110793
     39 C13         6.3310   -3.7240   -0.1050 c3        1 MOL     -0.017518
     40 C14         5.3640   -4.8990    0.3630 c         1 MOL      0.582525
     41 O6          5.7570   -6.0330    0.0370 o         1 MOL     -0.593907
     42 C15         7.0990   -3.1340    1.1070 c3        1 MOL     -0.342604
     43 C16         8.1750   -2.0680    0.7350 c         1 MOL      0.855701
     44 O7          8.4860   -1.2340    1.6120 o         1 MOL     -0.728668
     45 O8          8.9800   -2.2100   -0.2020 o         1 MOL     -0.728668
     46 H19         5.3030   -1.8080   -0.5300 hn        1 MOL      0.197422
     47 H20         7.0070   -4.2150   -0.8120 h1        1 MOL      0.081097
     48 H21         7.6630   -3.9490    1.5450 hc        1 MOL      0.097134
     49 H22         6.3360   -2.6900    1.7620 hc        1 MOL      0.097134
     50 N4          4.1270   -4.7460    0.8630 n         1 MOL     -0.473309
     51 C17         3.4680   -3.5750    1.1430 c3        1 MOL      0.204616
     52 C18         2.2170   -3.9160    1.9160 c         1 MOL      0.634997
     53 O9          1.5110   -4.9000    1.6400 o         1 MOL     -0.623567
     54 H23         3.6240   -5.5880    1.0980 hn        1 MOL      0.266538
     55 H24         3.1100   -3.0190    0.2800 h1        1 MOL     -0.035518
     56 H25         4.1640   -2.9150    1.6700 h1        1 MOL     -0.035518
     57 N5          1.7110   -3.1210    2.8060 n         1 MOL     -0.390916
     58 C19         1.9170   -1.7030    3.1610 c3        1 MOL     -0.162449
     59 C20         1.9740   -0.6710    2.0110 c         1 MOL      0.743578
     60 O10         3.1110   -0.1600    1.6990 o         1 MOL     -0.679936
     61 C21         3.1250   -1.5410    4.1700 c3        1 MOL     -0.400023
     62 C22         3.0630   -2.6340    5.2000 c         1 MOL      0.719039
     63 O11         2.2680   -2.5550    6.2070 o         1 MOL     -0.723785
     64 O12         3.7840   -3.6600    4.9940 o         1 MOL     -0.723785
     65 H26         1.0600   -3.5980    3.4260 hn        1 MOL      0.312000
     66 H27         1.0140   -1.4810    3.7190 h1        1 MOL      0.155745
     67 H28         3.0780   -0.5570    4.6560 hc        1 MOL      0.112816
     68 H29         4.1170   -1.5270    3.7390 hc        1 MOL      0.112816
     69 N6          0.8960   -0.2060    1.3450 n         1 MOL     -0.341663
     70 C23        -0.4410   -0.8350    1.3580 c3        1 MOL      0.041121
     71 C24        -0.5510   -2.1340    0.4950 c         1 MOL      0.449975
     72 O13         0.3050   -2.3730   -0.3470 o         1 MOL     -0.487694
     73 H30         1.1460    0.5550    0.7410 hn        1 MOL      0.151010
     74 H31        -1.1350   -0.1040    0.9360 h1        1 MOL      0.021177
     75 H32        -0.6990   -0.9490    2.4170 h1        1 MOL      0.021177
     76 N7         -1.5340   -3.0080    0.7780 n         1 MOL     -0.402837
     77 C25        -1.8640   -4.2130    0.0060 c3        1 MOL     -0.010391
     78 C26        -2.6980   -3.8780   -1.2810 c         1 MOL      0.557759
     79 O14        -2.9770   -4.8180   -1.9690 o         1 MOL     -0.553362
     80 C27        -2.7240   -5.1850    0.7590 c3        1 MOL     -0.071208
     81 C28        -3.8850   -4.6080    1.6160 c3        1 MOL      0.022224
     82 C29        -5.0950   -4.3010    0.6610 c         1 MOL      0.520865
     83 N8         -6.0150   -5.2290    0.4130 n         1 MOL     -0.651887
     84 O15        -5.1330   -3.1450    0.1950 o         1 MOL     -0.608069
     85 H33        -2.3300   -2.6650    1.2880 hn        1 MOL      0.269569
     86 H34        -0.9910   -4.7920   -0.3170 h1        1 MOL      0.153158
     87 H35        -2.1000   -5.6450    1.5280 hc        1 MOL      0.023785
     88 H36        -3.2250   -5.9370    0.1470 hc        1 MOL      0.023785
     89 H37        -3.5540   -3.7340    2.1730 hc        1 MOL      0.017126
     90 H38        -4.2840   -5.2420    2.4060 hc        1 MOL      0.017126
     91 H39        -5.8510   -6.1630    0.7750 hn        1 MOL      0.331597
     92 H40        -6.7700   -5.0410   -0.2300 hn        1 MOL      0.331597
     93 N9         -2.8980   -2.6060   -1.6530 n         1 MOL     -0.335141
     94 C30        -3.4450   -2.2910   -3.0100 c3        1 MOL      0.041751
     95 C31        -4.7880   -1.5150   -3.0850 c         1 MOL      0.256585
     96 O16        -5.2870   -1.0720   -4.1560 o         1 MOL     -0.547698
     97 C32        -2.4010   -1.5010   -3.7730 c3        1 MOL      0.248335
     98 C33        -1.1780   -2.4310   -4.0910 c3        1 MOL     -0.268659
     99 C34        -1.9050   -0.2820   -3.0340 c3        1 MOL     -0.268659
    100 H41        -2.4310   -1.9370   -1.0550 hn        1 MOL      0.178988
    101 H42        -3.6980   -3.2040   -3.5660 h1        1 MOL      0.107130
    102 H43        -2.8830   -1.3520   -4.7430 hc        1 MOL     -0.015551
    103 H44        -0.7400   -2.8060   -3.1610 hc        1 MOL      0.060818
    104 H45        -1.5950   -3.2040   -4.7270 hc        1 MOL      0.060818
    105 H46        -0.3850   -1.8340   -4.5560 hc        1 MOL      0.060818
    106 H47        -1.3450   -0.5230   -2.1330 hc        1 MOL      0.060818
    107 H48        -1.1510    0.2060   -3.6640 hc        1 MOL      0.060818
    108 H49        -2.5980    0.5600   -2.9220 hc        1 MOL      0.060818
    109 N10        -5.5230   -1.4030   -2.0050 n         1 MOL     -0.096200
    110 C35        -6.9130   -0.8800   -2.0610 c3        1 MOL      0.038122
    111 C36        -6.9620    0.4260   -1.2850 c         1 MOL      0.523299
    112 O17        -7.9930    1.1330   -1.3300 o         1 MOL     -0.569557
    113 C37        -7.8220   -2.0010   -1.4120 c3        1 MOL     -0.452866
    114 C38        -7.8220   -3.2890   -2.2210 c         1 MOL      0.644156
    115 N11        -7.9930   -3.1930   -3.5320 n         1 MOL     -0.721051
    116 O18        -7.7970   -4.3780   -1.7750 o         1 MOL     -0.535351
    117 H50        -5.0640   -1.6830   -1.1490 hn        1 MOL      0.280656
    118 H51        -7.1970   -0.7140   -3.0930 h1        1 MOL      0.100829
    119 H52        -8.8160   -1.6020   -1.2150 hc        1 MOL      0.172867
    120 H53        -7.3540   -2.2840   -0.4700 hc        1 MOL      0.172867
    121 H54        -8.0640   -2.3240   -4.0300 hn        1 MOL      0.342765
    122 H55        -8.1380   -4.0590   -4.0230 hn        1 MOL      0.342765
    123 N12        -5.8670    0.8520   -0.6100 n         1 MOL     -0.502656
    124 C39        -5.9280    2.0670    0.2410 c3        1 MOL      0.413336
    125 C40        -4.5580    2.7200    0.2680 c         1 MOL      0.337394
    126 O19        -3.5280    2.1120   -0.0050 o         1 MOL     -0.425012
    127 C41        -6.3140    1.6710    1.7100 c3        1 MOL     -0.063977
    128 C42        -7.7460    1.3140    1.8890 ca        1 MOL      0.026986
    129 C43        -8.6440    2.3090    2.2660 ca        1 MOL     -0.124736
    130 C44        -8.0480   -0.0700    1.7530 ca        1 MOL     -0.124736
    131 C45        -9.9990    1.8560    2.4400 ca        1 MOL     -0.265164
    132 C46        -9.3880   -0.4630    2.0680 ca        1 MOL     -0.265164
    133 C47       -10.3550    0.5220    2.4180 ca        1 MOL      0.329747
    134 O20       -11.5360    0.1710    2.9010 oh        1 MOL     -0.454970
    135 H56        -5.0460    0.2570   -0.5710 hn        1 MOL      0.182813
    136 H57        -6.6670    2.7680   -0.1170 h1        1 MOL     -0.011387
    137 H58        -6.2020    2.5170    2.3900 hc        1 MOL      0.037418
    138 H59        -5.5630    0.9410    2.0360 hc        1 MOL      0.037418
    139 H60        -8.3290    3.3260    2.4490 ha        1 MOL      0.115976
    140 H61        -7.2570   -0.7520    1.4770 ha        1 MOL      0.115976
    141 H62       -10.7270    2.5970    2.7290 ha        1 MOL      0.129557
    142 H63        -9.6540   -1.5000    2.1580 ha        1 MOL      0.129557
    143 H64       -11.9920    0.9950    3.0810 ho        1 MOL      0.325314
    144 N13        -4.5190    4.0100    0.6120 n         1 MOL     -0.649618
    145 C48        -3.3540    4.6860    1.2620 c3        1 MOL      0.330987
    146 C49        -2.1780    4.9740    0.4400 c         1 MOL      0.498536
    147 O21        -1.4480    5.8500    0.8420 o         1 MOL     -0.554033
    148 C50        -3.0760    4.3400    2.7150 c3        1 MOL     -0.020303
    149 C51        -2.4340    3.0120    2.9430 c3        1 MOL     -0.125693
    150 C52        -2.3960    2.6180    4.4390 c         1 MOL      0.642047
    151 O22        -2.4120    1.4210    4.7620 o         1 MOL     -0.708923
    152 O23        -2.2190    3.5590    5.2800 o         1 MOL     -0.708923
    153 H65        -5.4010    4.4980    0.6870 hn        1 MOL      0.316910
    154 H66        -3.6820    5.7180    1.4360 h1        1 MOL     -0.031160
    155 H67        -3.9700    4.4150    3.3240 hc        1 MOL      0.003651
    156 H68        -2.4790    5.0640    3.2740 hc        1 MOL      0.003651
    157 H69        -1.4210    2.9650    2.5420 hc        1 MOL      0.039835
    158 H70        -3.0430    2.3210    2.3630 hc        1 MOL      0.039835
    159 N14        -1.9560    4.2820   -0.6520 n         1 MOL     -0.694929
    160 C53        -0.7980    4.5050   -1.5210 c3        1 MOL      0.082122
    161 C54        -1.1870    5.3410   -2.7640 c         1 MOL      0.513288
    162 O24        -0.3690    5.3350   -3.7040 o         1 MOL     -0.570950
    163 C55        -0.2900    3.1490   -1.9090 c3        1 MOL     -0.226363
    164 C56         0.1610    2.2410   -0.7540 c3        1 MOL      0.159965
    165 C57         1.2950    2.8390    0.0370 c         1 MOL      0.684170
    166 O25         1.2320    3.9820    0.5520 o         1 MOL     -0.639000
    167 O26         2.3360    2.1820    0.1960 o         1 MOL     -0.639000
    168 H71        -2.5690    3.4960   -0.8210 hn        1 MOL      0.355385
    169 H72         0.0620    5.0560   -1.1410 h1        1 MOL      0.124158
    170 H73         0.6640    3.3330   -2.3900 hc        1 MOL      0.076279
    171 H74        -0.9430    2.5910   -2.5820 hc        1 MOL      0.076279
    172 H75         0.5090    1.3010   -1.1890 hc        1 MOL     -0.001013
    173 H76        -0.6600    2.0210   -0.0780 hc        1 MOL     -0.001013
    174 N15        -2.3460    5.9680   -2.8890 n         1 MOL     -0.281626
    175 C58        -2.8000    6.7360   -4.0290 c3        1 MOL     -0.180379
    176 H77        -2.4400    7.7610   -3.9420 h1        1 MOL      0.082833
    177 H78        -2.4120    6.2910   -4.9460 h1        1 MOL      0.082833
    178 H79        -3.8900    6.7350   -4.0570 h1        1 MOL      0.082833
    179 H80        -2.9070    6.0980   -2.0510 hn        1 MOL      0.261653
    180 Ca1         4.6430    1.8690    1.1780 Ca        1 MOL      1.804487
    181 O27         6.4070    0.3240    2.4300 oh        1 MOL     -0.803511
    182 H81         6.5850    0.2250    3.3670 ho        1 MOL      0.386814
    183 H82         7.1590   -0.0860    2.0050 ho        1 MOL      0.386814
    184 O28         4.3240    4.5060    0.9640 oh        1 MOL     -0.803511
    185 H83         3.4410    4.7700    0.7110 ho        1 MOL      0.386814
    186 H84         4.9020    5.1120    0.4870 ho        1 MOL      0.386814
    187 O29         2.7510    2.1690    3.1030 oh        1 MOL     -0.803511
    188 H85         2.0680    2.8460    3.1350 ho        1 MOL      0.386814
    189 H86         2.5780    1.6190    3.8710 ho        1 MOL      0.386814
    190 O30         5.6100    3.0440    4.0160 oh        1 MOL     -0.803511
    191 H87         6.4800    3.2810    4.3340 ho        1 MOL      0.386814
    192 H88         5.1280    3.8800    3.9810 ho        1 MOL      0.386814
@<TRIPOS>BOND
     1    1    2 1   
     2    1    4 1   
     3    1    5 1   
     4    1    6 1   
     5    2    3 2   
     6    2    7 1   
     7    7    8 1   
     8    7   15 1   
     9    8    9 1   
    10    8   11 1   
    11    8   16 1   
    12    9   10 2   
    13    9   19 1   
    14   11   12 1   
    15   11   17 1   
    16   11   18 1   
    17   12   13 1   
    18   12   14 1   
    19   19   20 1   
    20   19   27 1   
    21   20   21 1   
    22   20   23 1   
    23   20   28 1   
    24   21   22 2   
    25   21   38 1   
    26   23   24 1   
    27   23   25 1   
    28   23   29 1   
    29   24   26 1   
    30   24   30 1   
    31   24   31 1   
    32   25   32 1   
    33   25   33 1   
    34   25   34 1   
    35   26   35 1   
    36   26   36 1   
    37   26   37 1   
    38   38   39 1   
    39   38   46 1   
    40   39   40 1   
    41   39   42 1   
    42   39   47 1   
    43   40   41 2   
    44   40   50 1   
    45   42   43 1   
    46   42   48 1   
    47   42   49 1   
    48   43   44 1   
    49   43   45 1   
    50   50   51 1   
    51   50   54 1   
    52   51   52 1   
    53   51   55 1   
    54   51   56 1   
    55   52   53 2   
    56   52   57 1   
    57   57   58 1   
    58   57   65 1   
    59   58   59 1   
    60   58   61 1   
    61   58   66 1   
    62   59   60 2   
    63   59   69 1   
    64   61   62 1   
    65   61   67 1   
    66   61   68 1   
    67   62   63 1   
    68   62   64 1   
    69   69   70 1   
    70   69   73 1   
    71   70   71 1   
    72   70   74 1   
    73   70   75 1   
    74   71   72 2   
    75   71   76 1   
    76   76   77 1   
    77   76   85 1   
    78   77   78 1   
    79   77   80 1   
    80   77   86 1   
    81   78   79 2   
    82   78   93 1   
    83   80   81 1   
    84   80   87 1   
    85   80   88 1   
    86   81   82 1   
    87   81   89 1   
    88   81   90 1   
    89   82   83 1   
    90   82   84 2   
    91   83   91 1   
    92   83   92 1   
    93   93   94 1   
    94   93  100 1   
    95   94   95 1   
    96   94   97 1   
    97   94  101 1   
    98   95   96 2   
    99   95  109 1   
   100   97   98 1   
   101   97   99 1   
   102   97  102 1   
   103   98  103 1   
   104   98  104 1   
   105   98  105 1   
   106   99  106 1   
   107   99  107 1   
   108   99  108 1   
   109  109  110 1   
   110  109  117 1   
   111  110  111 1   
   112  110  113 1   
   113  110  118 1   
   114  111  112 2   
   115  111  123 1   
   116  113  114 1   
   117  113  119 1   
   118  113  120 1   
   119  114  115 1   
   120  114  116 2   
   121  115  121 1   
   122  115  122 1   
   123  123  124 1   
   124  123  135 1   
   125  124  125 1   
   126  124  127 1   
   127  124  136 1   
   128  125  126 2   
   129  125  144 1   
   130  127  128 1   
   131  127  137 1   
   132  127  138 1   
   133  128  129 ar  
   134  128  130 ar  
   135  129  131 ar  
   136  129  139 1   
   137  130  132 ar  
   138  130  140 1   
   139  131  133 ar  
   140  131  141 1   
   141  132  133 ar  
   142  132  142 1   
   143  133  134 1   
   144  134  143 1   
   145  144  145 1   
   146  144  153 1   
   147  145  146 1   
   148  145  148 1   
   149  145  154 1   
   150  146  147 2   
   151  146  159 1   
   152  148  149 1   
   153  148  155 1   
   154  148  156 1   
   155  149  150 1   
   156  149  157 1   
   157  149  158 1   
   158  150  151 1   
   159  150  152 1   
   160  159  160 1   
   161  159  168 1   
   162  160  161 1   
   163  160  163 1   
   164  160  169 1   
   165  161  162 2   
   166  161  174 1   
   167  163  164 1   
   168  163  170 1   
   169  163  171 1   
   170  164  165 1   
   171  164  172 1   
   172  164  173 1   
   173  165  166 1   
   174  165  167 1   
   175  174  175 1   
   176  174  179 1   
   177  175  176 1   
   178  175  177 1   
   179  175  178 1   
   180  181  182 1   
   181  181  183 1   
   182  184  185 1   
   183  184  186 1   
   184  187  188 1   
   185  187  189 1   
   186  190  191 1   
   187  190  192 1   
@<TRIPOS>SUBSTRUCTURE
     1 MOL         1 TEMP              0 ****  ****    0 ROOT
