@<TRIPOS>MOLECULE
MOL
  182   178     1     0     0
SMALL
resp


@<TRIPOS>ATOM
      1 C1          0.6150   -3.7870    6.0320 c3        1 MOL     -0.458637
      2 C2          0.8240   -3.5040    4.4770 c         1 MOL      0.769315
      3 O1         -0.0880   -3.6570    3.6700 o         1 MOL     -0.595808
      4 H1          1.5820   -3.9730    6.5000 hc        1 MOL      0.135460
      5 H2          0.1460   -2.9220    6.5000 hc        1 MOL      0.135460
      6 H3         -0.0240   -4.6610    6.1600 hc        1 MOL      0.135460
      7 N1          2.0760   -3.1870    4.0500 n         1 MOL     -0.617561
      8 C3          2.3460   -2.8270    2.6210 c3        1 MOL     -0.055554
      9 C4          2.7190   -4.0540    1.8490 c         1 MOL      0.663624
     10 O2          3.6820   -4.7730    2.1550 o         1 MOL     -0.541628
     11 C5          3.5900   -1.9130    2.6840 c3        1 MOL     -0.084059
     12 C6          3.7830   -1.2680    1.3030 c         1 MOL      0.466332
     13 O3          4.3340   -0.1650    1.2960 o         1 MOL     -0.668844
     14 O4          3.3330   -1.7040    0.2330 o         1 MOL     -0.668844
     15 H4          2.8220   -3.1980    4.7400 hn        1 MOL      0.343036
     16 H5          1.5640   -2.2000    2.2120 h1        1 MOL     -0.104684
     17 H6          4.4950   -2.4960    2.8880 hc        1 MOL      0.095276
     18 H7          3.5050   -1.1540    3.4520 hc        1 MOL      0.095276
     19 N2          2.0460   -4.3130    0.7360 n         1 MOL     -0.396175
     20 C7          2.3070   -5.4710   -0.1510 c3        1 MOL      0.052598
     21 C8          3.6070   -5.1810   -1.0090 c         1 MOL      0.391267
     22 O5          4.5150   -6.0070   -1.0620 o         1 MOL     -0.538677
     23 C9          1.1130   -5.7910   -0.9760 c3        1 MOL     -0.121552
     24 C10        -0.2360   -5.6960   -0.2490 c3        1 MOL      0.058128
     25 C11        -1.3420   -6.0490   -1.3090 c3        1 MOL     -0.112122
     26 C12        -2.7770   -6.0170   -0.8630 c3        1 MOL      0.178190
     27 N3         -3.7700   -6.3210   -1.9100 n4        1 MOL     -0.312688
     28 H8          1.3830   -3.6650    0.3280 hn        1 MOL      0.412798
     29 H9          2.5730   -6.3070    0.4910 h1        1 MOL      0.094700
     30 H10         1.2250   -6.8100   -1.3390 hc        1 MOL      0.028282
     31 H11         1.1320   -5.0020   -1.7300 hc        1 MOL      0.028282
     32 H12        -0.2450   -4.7060    0.2160 hc        1 MOL      0.029580
     33 H13        -0.2900   -6.3280    0.6310 hc        1 MOL      0.029580
     34 H14        -1.1290   -7.0060   -1.7700 hc        1 MOL      0.035693
     35 H15        -1.2750   -5.3050   -2.0980 hc        1 MOL      0.035693
     36 H16        -3.0000   -5.0750   -0.3550 hx        1 MOL      0.044674
     37 H17        -2.9010   -6.8120   -0.1140 hx        1 MOL      0.044674
     38 H18        -3.8780   -7.2990   -2.1240 hn        1 MOL      0.264971
     39 H19        -4.7000   -5.9900   -1.6950 hn        1 MOL      0.264971
     40 H20        -3.5210   -5.8010   -2.7390 hn        1 MOL      0.264971
     41 N4          3.9240   -3.9780   -1.4560 n         1 MOL      0.063042
     42 C13         5.1810   -3.7470   -2.1910 c3        1 MOL     -0.104914
     43 C14         6.3390   -3.0950   -1.3730 c         1 MOL      0.326579
     44 O6          7.5010   -3.1320   -1.8690 o         1 MOL     -0.529876
     45 C15         4.8800   -2.8810   -3.3950 c3        1 MOL     -0.084896
     46 C16         4.1770   -1.5940   -3.0350 c         1 MOL      0.647391
     47 O7          4.9210   -0.7140   -2.4380 o         1 MOL     -0.687312
     48 O8          2.9240   -1.4850   -3.2240 o         1 MOL     -0.687312
     49 H21         3.3520   -3.2190   -1.1140 hn        1 MOL     -0.183161
     50 H22         5.5710   -4.6570   -2.6550 h1        1 MOL      0.160150
     51 H23         4.1180   -3.5150   -3.8420 hc        1 MOL      0.026476
     52 H24         5.6720   -2.7990   -4.1460 hc        1 MOL      0.026476
     53 N5          6.0980   -2.8890   -0.1180 n         1 MOL      0.004644
     54 C17         7.0200   -2.2870    0.8890 c3        1 MOL     -0.255997
     55 C18         7.5490   -0.8820    0.5810 c         1 MOL      0.593870
     56 O9          8.5560   -0.4610    1.1470 o         1 MOL     -0.542799
     57 H25         5.1210   -3.0690    0.0510 hn        1 MOL      0.178205
     58 H26         7.9310   -2.8790    0.8960 h1        1 MOL      0.118721
     59 H27         6.7500   -2.2410    1.9520 h1        1 MOL      0.118721
     60 N6          6.8750   -0.0880   -0.3090 n         1 MOL     -0.150686
     61 C19         7.2600    1.2410   -0.8140 c3        1 MOL     -0.078443
     62 C20         6.0720    2.2340   -0.9200 c         1 MOL      0.491696
     63 O10         4.9310    1.7800   -0.9790 o         1 MOL     -0.395931
     64 C21         7.8820    0.9900   -2.1960 c3        1 MOL     -0.237605
     65 C22         9.2330    0.1910   -2.1220 c         1 MOL      0.710115
     66 N7          9.3830   -0.9770   -2.7600 n         1 MOL     -0.887529
     67 O11        10.1850    0.6150   -1.4540 o         1 MOL     -0.551317
     68 H28         5.9500   -0.4000   -0.5580 hn        1 MOL      0.135451
     69 H29         8.0590    1.6510   -0.1850 h1        1 MOL      0.062720
     70 H30         8.2020    1.9140   -2.6680 hc        1 MOL      0.064401
     71 H31         7.2740    0.3830   -2.8740 hc        1 MOL      0.064401
     72 H32         8.5520   -1.5050   -2.9940 hn        1 MOL      0.396150
     73 H33        10.2370   -1.5200   -2.7840 hn        1 MOL      0.396150
     74 N8          6.3250    3.5240   -0.8630 n         1 MOL     -0.334531
     75 C23         5.4290    4.6610   -1.1220 c3        1 MOL     -0.195495
     76 C24         4.3320    4.7220   -0.0380 c         1 MOL      0.607228
     77 O12         4.5270    4.6180    1.1600 o         1 MOL     -0.507733
     78 H34         7.2940    3.7210   -0.6680 hn        1 MOL      0.310498
     79 H35         4.9720    4.5250   -2.1020 h1        1 MOL      0.110606
     80 H36         5.9850    5.5990   -1.0640 h1        1 MOL      0.110606
     81 N9          3.1070    4.9290   -0.4790 n         1 MOL     -0.500006
     82 C25         1.8570    4.8070    0.3690 c3        1 MOL      0.007375
     83 C26         1.5320    3.3490    0.6140 c         1 MOL      0.656966
     84 O13         1.8180    2.4940   -0.2550 o         1 MOL     -0.671930
     85 C27         0.6390    5.4780   -0.2450 c3        1 MOL     -0.085293
     86 C28         0.7040    6.9950   -0.1810 ca        1 MOL     -0.008060
     87 C29         0.7250    7.6480    1.0410 ca        1 MOL     -0.076419
     88 C30         0.4420    7.7890   -1.3370 ca        1 MOL     -0.076419
     89 C31         0.5320    9.0500    1.1350 ca        1 MOL     -0.315916
     90 C32         0.2630    9.1670   -1.3070 ca        1 MOL     -0.315916
     91 C33         0.3510    9.7880   -0.0280 ca        1 MOL      0.367607
     92 O14         0.3300   11.1180   -0.0140 oh        1 MOL     -0.442374
     93 H37         2.9360    5.1540   -1.4410 hn        1 MOL      0.282475
     94 H38         2.0690    5.3030    1.3180 h1        1 MOL      0.077399
     95 H39        -0.3130    5.2510    0.2470 hc        1 MOL      0.065149
     96 H40         0.5090    5.1900   -1.2890 hc        1 MOL      0.065149
     97 H41         0.9350    7.1060    1.9520 ha        1 MOL      0.099812
     98 H42         0.4090    7.1670   -2.2210 ha        1 MOL      0.099812
     99 H43         0.7820    9.5580    2.0520 ha        1 MOL      0.174478
    100 H44         0.1140    9.7670   -2.1910 ha        1 MOL      0.174478
    101 H45         0.3720   11.4680    0.8760 ho        1 MOL      0.349525
    102 N10         0.8080    3.0120    1.7180 n         1 MOL     -0.527734
    103 C34         0.2990    1.8260    2.3680 c3        1 MOL     -0.023069
    104 C35        -0.1370    0.7340    1.4620 c         1 MOL      0.384175
    105 O15         0.7240    0.2350    0.7480 o         1 MOL     -0.218680
    106 C36         1.2920    1.2500    3.4730 c3        1 MOL      0.546640
    107 C37         0.5560    0.3260    4.4520 c3        1 MOL     -0.287303
    108 C38         2.1220    2.2990    4.3050 c3        1 MOL     -0.199569
    109 C39        -0.5330    0.9220    5.3180 c3        1 MOL     -0.041677
    110 H46         0.5710    3.8710    2.1890 hn        1 MOL      0.280709
    111 H47        -0.5830    2.0280    2.9770 h1        1 MOL      0.040184
    112 H48         1.9510    0.5910    2.9030 hc        1 MOL     -0.125083
    113 H49         1.3500    0.0800    5.1600 hc        1 MOL      0.089093
    114 H50         0.1900   -0.5670    3.9390 hc        1 MOL      0.089093
    115 H51         1.4630    3.0790    4.7080 hc        1 MOL      0.040728
    116 H52         2.6150    1.8850    5.1840 hc        1 MOL      0.040728
    117 H53         2.8390    2.8000    3.6530 hc        1 MOL      0.040728
    118 H54        -1.4170    0.9520    4.6750 hc        1 MOL      0.010467
    119 H55        -0.7840    0.2640    6.1500 hc        1 MOL      0.010467
    120 H56        -0.4370    1.9930    5.5420 hc        1 MOL      0.010467
    121 N11        -1.3900    0.2720    1.5240 n         1 MOL     -0.510391
    122 C40        -1.8310   -0.8790    0.7740 c3        1 MOL      0.044304
    123 C41        -3.2210   -0.7940    0.1400 c         1 MOL      0.687422
    124 O16        -3.5150   -1.6220   -0.6950 o         1 MOL     -0.586168
    125 C42        -1.6360   -2.1380    1.5930 c3        1 MOL      0.497233
    126 O17        -1.9780   -2.0490    2.9420 oh        1 MOL     -0.673177
    127 H57        -2.0160    0.7200    2.1760 hn        1 MOL      0.329643
    128 H58        -1.2080   -1.0310   -0.1130 h1        1 MOL     -0.011993
    129 H59        -0.5830   -2.3980    1.5740 h1        1 MOL     -0.105986
    130 H60        -2.1230   -2.9950    1.1230 h1        1 MOL     -0.105986
    131 H61        -1.3860   -2.5410    3.5160 ho        1 MOL      0.407547
    132 N12        -4.0740    0.1950    0.4920 n         1 MOL     -0.599842
    133 C43        -5.4720    0.3200    0.1920 c3        1 MOL      0.141943
    134 C44        -5.7580    1.0340   -1.2130 c         1 MOL      0.685113
    135 O18        -4.8800    1.7360   -1.6660 o         1 MOL     -0.584693
    136 C45        -6.1060    0.9310    1.4340 c3        1 MOL     -0.315832
    137 H62        -3.6870    0.8320    1.1750 hn        1 MOL      0.286385
    138 H63        -5.7070   -0.7450    0.0730 h1        1 MOL      0.077216
    139 H64        -7.1900    0.9230    1.5380 hc        1 MOL      0.102182
    140 H65        -5.7690    0.4570    2.3630 hc        1 MOL      0.102182
    141 H66        -5.6400    1.9070    1.5360 hc        1 MOL      0.102182
    142 N13        -6.9030    0.9260   -1.9030 n         1 MOL     -0.711516
    143 C46        -8.0330    0.0560   -1.6870 c3        1 MOL      0.385602
    144 C47        -9.3180    0.5940   -2.3360 c         1 MOL      0.361315
    145 O19        -9.1980    1.2560   -3.4100 o         1 MOL     -0.519569
    146 C48        -7.6200   -1.3290   -2.2670 c3        1 MOL     -0.119845
    147 H67        -6.8720    1.4780   -2.7470 hn        1 MOL      0.358752
    148 H68        -8.2100   -0.1300   -0.6250 h1        1 MOL     -0.055346
    149 H69        -7.5170   -1.4310   -3.3450 hc        1 MOL      0.034207
    150 H70        -6.6740   -1.6230   -1.8280 hc        1 MOL      0.034207
    151 H71        -8.3530   -2.0440   -1.9050 hc        1 MOL      0.034207
    152 N14       -10.5040    0.4280   -1.7120 n         1 MOL     -0.427877
    153 C49       -10.7130   -0.1000   -0.3180 c3        1 MOL     -0.105183
    154 C50       -10.1380    0.9070    0.7840 c         1 MOL      0.445551
    155 O20        -9.7460    0.4130    1.8720 o         1 MOL     -0.520483
    156 C51       -12.2050   -0.3930   -0.1280 c3        1 MOL      0.000863
    157 C52       -12.5170   -1.4470   -1.1860 c3        1 MOL     -0.206788
    158 C53       -13.9850   -1.9100   -1.0010 c         1 MOL      0.684686
    159 O21       -14.2230   -2.5790    0.0150 o         1 MOL     -0.655662
    160 O22       -14.8540   -1.7620   -1.9140 o         1 MOL     -0.655662
    161 H72       -11.3410    0.7280   -2.1770 hn        1 MOL      0.344362
    162 H73       -10.1970   -1.0570   -0.2300 h1        1 MOL      0.136820
    163 H74       -12.7400    0.5470   -0.2540 hc        1 MOL      0.048593
    164 H75       -12.2800   -0.7460    0.9010 hc        1 MOL      0.048593
    165 H76       -11.8600   -2.3170   -1.1480 hc        1 MOL      0.038743
    166 H77       -12.3760   -1.0030   -2.1770 hc        1 MOL      0.038743
    167 N15        -9.9680    2.1760    0.5260 n         1 MOL     -0.229499
    168 C54        -9.4050    3.1100    1.4510 c3        1 MOL     -0.187308
    169 H78        -8.3700    3.3130    1.1770 h1        1 MOL      0.092853
    170 H79        -9.9760    4.0380    1.4250 h1        1 MOL      0.092853
    171 H80        -9.4390    2.6910    2.4570 h1        1 MOL      0.092853
    172 H81       -10.4920    2.6470   -0.1940 hn        1 MOL      0.256304
    173 Ca1         2.7360    0.2960   -1.2700 Ca        1 MOL      1.720272
    174 O23         0.4040    0.2410   -2.6220 oh        1 MOL     -0.873073
    175 H82         0.2820    0.1010   -3.5660 ho        1 MOL      0.429303
    176 H83        -0.4270    0.6020   -2.3250 ho        1 MOL      0.429303
    177 O24         1.0360   -2.2910   -1.1630 oh        1 MOL     -0.873073
    178 H84         1.6080   -2.5200   -1.8900 ho        1 MOL      0.429303
    179 H85         0.1590   -2.2470   -1.5460 ho        1 MOL      0.429303
    180 O25         2.8090    2.1710   -3.1170 oh        1 MOL     -0.873073
    181 H86         2.0150    2.6670   -3.2940 ho        1 MOL      0.429303
    182 H87         3.4560    2.5330   -3.7170 ho        1 MOL      0.429303
@<TRIPOS>BOND
     1    1    2 1   
     2    1    4 1   
     3    1    5 1   
     4    1    6 1   
     5    2    3 2   
     6    2    7 1   
     7    7    8 1   
     8    7   15 1   
     9    8    9 1   
    10    8   11 1   
    11    8   16 1   
    12    9   10 2   
    13    9   19 1   
    14   11   12 1   
    15   11   17 1   
    16   11   18 1   
    17   12   13 1   
    18   12   14 1   
    19   19   20 1   
    20   19   28 1   
    21   20   21 1   
    22   20   23 1   
    23   20   29 1   
    24   21   22 2   
    25   21   41 1   
    26   23   24 1   
    27   23   30 1   
    28   23   31 1   
    29   24   25 1   
    30   24   32 1   
    31   24   33 1   
    32   25   26 1   
    33   25   34 1   
    34   25   35 1   
    35   26   27 1   
    36   26   36 1   
    37   26   37 1   
    38   27   38 1   
    39   27   39 1   
    40   27   40 1   
    41   41   42 1   
    42   41   49 1   
    43   42   43 1   
    44   42   45 1   
    45   42   50 1   
    46   43   44 2   
    47   43   53 1   
    48   45   46 1   
    49   45   51 1   
    50   45   52 1   
    51   46   47 1   
    52   46   48 1   
    53   53   54 1   
    54   53   57 1   
    55   54   55 1   
    56   54   58 1   
    57   54   59 1   
    58   55   56 2   
    59   55   60 1   
    60   60   61 1   
    61   60   68 1   
    62   61   62 1   
    63   61   64 1   
    64   61   69 1   
    65   62   63 2   
    66   62   74 1   
    67   64   65 1   
    68   64   70 1   
    69   64   71 1   
    70   65   66 1   
    71   65   67 2   
    72   66   72 1   
    73   66   73 1   
    74   74   75 1   
    75   74   78 1   
    76   75   76 1   
    77   75   79 1   
    78   75   80 1   
    79   76   77 2   
    80   76   81 1   
    81   81   82 1   
    82   81   93 1   
    83   82   83 1   
    84   82   85 1   
    85   82   94 1   
    86   83   84 2   
    87   83  102 1   
    88   85   86 1   
    89   85   95 1   
    90   85   96 1   
    91   86   87 ar  
    92   86   88 ar  
    93   87   89 ar  
    94   87   97 1   
    95   88   90 ar  
    96   88   98 1   
    97   89   91 ar  
    98   89   99 1   
    99   90   91 ar  
   100   90  100 1   
   101   91   92 1   
   102   92  101 1   
   103  102  103 1   
   104  102  110 1   
   105  103  104 1   
   106  103  106 1   
   107  103  111 1   
   108  104  105 2   
   109  104  121 1   
   110  106  107 1   
   111  106  108 1   
   112  106  112 1   
   113  107  109 1   
   114  107  113 1   
   115  107  114 1   
   116  108  115 1   
   117  108  116 1   
   118  108  117 1   
   119  109  118 1   
   120  109  119 1   
   121  109  120 1   
   122  121  122 1   
   123  121  127 1   
   124  122  123 1   
   125  122  125 1   
   126  122  128 1   
   127  123  124 2   
   128  123  132 1   
   129  125  126 1   
   130  125  129 1   
   131  125  130 1   
   132  126  131 1   
   133  132  133 1   
   134  132  137 1   
   135  133  134 1   
   136  133  136 1   
   137  133  138 1   
   138  134  135 2   
   139  134  142 1   
   140  136  139 1   
   141  136  140 1   
   142  136  141 1   
   143  142  143 1   
   144  142  147 1   
   145  143  144 1   
   146  143  146 1   
   147  143  148 1   
   148  144  145 2   
   149  144  152 1   
   150  146  149 1   
   151  146  150 1   
   152  146  151 1   
   153  152  153 1   
   154  152  161 1   
   155  153  154 1   
   156  153  156 1   
   157  153  162 1   
   158  154  155 2   
   159  154  167 1   
   160  156  157 1   
   161  156  163 1   
   162  156  164 1   
   163  157  158 1   
   164  157  165 1   
   165  157  166 1   
   166  158  159 1   
   167  158  160 1   
   168  167  168 1   
   169  167  172 1   
   170  168  169 1   
   171  168  170 1   
   172  168  171 1   
   173  174  175 1   
   174  174  176 1   
   175  177  178 1   
   176  177  179 1   
   177  180  181 1   
   178  180  182 1   
@<TRIPOS>SUBSTRUCTURE
     1 MOL         1 TEMP              0 ****  ****    0 ROOT
