@<TRIPOS>MOLECULE
MOL
  179   176     1     0     0
SMALL
resp


@<TRIPOS>ATOM
      1 C1          0.8020   -3.8810    6.4440 c3        1 MOL     -0.360259
      2 C2          0.8280   -3.7690    4.9390 c         1 MOL      0.748927
      3 O1         -0.0650   -4.3140    4.2910 o         1 MOL     -0.572867
      4 H1          1.6200   -3.2960    6.8650 hc        1 MOL      0.102141
      5 H2         -0.1480   -3.5010    6.8200 hc        1 MOL      0.102141
      6 H3          0.9170   -4.9250    6.7330 hc        1 MOL      0.102141
      7 N1          1.9360   -3.2520    4.3620 n         1 MOL     -0.552958
      8 C3          2.2440   -2.9980    2.9720 c3        1 MOL      0.008979
      9 C4          2.4460   -4.3040    2.1730 c         1 MOL      0.647294
     10 O2          3.0210   -5.2820    2.6360 o         1 MOL     -0.564771
     11 C5          3.5070   -2.0760    2.8730 c3        1 MOL     -0.197682
     12 C6          3.6220   -1.3270    1.5420 c         1 MOL      0.321636
     13 O3          4.0230   -0.1560    1.5040 o         1 MOL     -0.573843
     14 O4          3.1950   -1.7830    0.4560 o         1 MOL     -0.573843
     15 H4          2.6100   -2.9580    5.0550 hn        1 MOL      0.300926
     16 H5          1.4340   -2.4100    2.5600 h1        1 MOL      0.008488
     17 H6          4.3740   -2.6990    3.0620 hc        1 MOL      0.134385
     18 H7          3.4380   -1.2880    3.6290 hc        1 MOL      0.134385
     19 N2          2.0180   -4.2880    0.9420 n         1 MOL     -0.432871
     20 C7          2.1510   -5.3630   -0.0400 c3        1 MOL      0.028238
     21 C8          3.3280   -5.1720   -1.0070 c         1 MOL      0.475316
     22 O5          3.5690   -6.1410   -1.7810 o         1 MOL     -0.562453
     23 C9          0.8160   -5.6830   -0.7040 c3        1 MOL     -0.090878
     24 C10         0.5030   -4.7000   -1.8020 c3        1 MOL     -0.052126
     25 C11        -0.8420   -5.0660   -2.4990 c3        1 MOL     -0.093254
     26 C12        -1.0560   -4.2150   -3.7640 c3        1 MOL      0.120132
     27 N3         -0.1750   -4.5030   -4.8950 n4        1 MOL     -0.188933
     28 H8          1.7100   -3.3910    0.6020 hn        1 MOL      0.327527
     29 H9          2.5090   -6.2620    0.4760 h1        1 MOL      0.132516
     30 H10         0.1040   -5.6790    0.1210 hc        1 MOL      0.049655
     31 H11         0.8540   -6.6920   -1.1150 hc        1 MOL      0.049655
     32 H12         1.3320   -4.7270   -2.5140 hc        1 MOL      0.009808
     33 H13         0.5190   -3.6910   -1.4100 hc        1 MOL      0.009808
     34 H14        -1.6340   -4.7970   -1.8040 hc        1 MOL      0.084678
     35 H15        -0.9510   -6.1310   -2.7070 hc        1 MOL      0.084678
     36 H16        -0.9520   -3.1460   -3.5490 hx        1 MOL      0.010034
     37 H17        -2.0690   -4.4740   -4.0680 hx        1 MOL      0.010034
     38 H18         0.7690   -4.2170   -4.6650 hn        1 MOL      0.257842
     39 H19        -0.2230   -5.5000   -5.0380 hn        1 MOL      0.257842
     40 H20        -0.4280   -4.1230   -5.7900 hn        1 MOL      0.257842
     41 N4          4.1080   -4.1280   -0.8370 n         1 MOL     -0.341893
     42 C13         5.3930   -3.9270   -1.5650 c3        1 MOL      0.052285
     43 C14         6.4550   -3.2340   -0.7560 c         1 MOL      0.399102
     44 O6          7.6210   -3.5030   -1.0220 o         1 MOL     -0.532881
     45 C15         5.0920   -3.2430   -2.8740 c3        1 MOL     -0.122084
     46 C16         4.2590   -2.0100   -2.8830 c         1 MOL      0.837774
     47 O7          3.1840   -2.1270   -3.4970 o         1 MOL     -0.800055
     48 O8          4.6060   -1.0020   -2.2460 o         1 MOL     -0.800055
     49 H21         3.7960   -3.3530   -0.2720 hn        1 MOL      0.163490
     50 H22         5.7750   -4.8970   -1.8660 h1        1 MOL      0.112922
     51 H23         4.6660   -4.0780   -3.4250 hc        1 MOL      0.034317
     52 H24         6.0810   -2.9410   -3.2320 hc        1 MOL      0.034317
     53 N5          6.0810   -2.3590    0.1850 n         1 MOL     -0.037472
     54 C17         7.0180   -1.6320    1.0570 c3        1 MOL     -0.424962
     55 C18         7.4830   -0.3370    0.4300 c         1 MOL      0.622058
     56 O9          8.2530    0.2890    1.1210 o         1 MOL     -0.524872
     57 H25         5.0840   -2.1800    0.2910 hn        1 MOL      0.070583
     58 H26         7.8700   -2.2880    1.2160 h1        1 MOL      0.186475
     59 H27         6.4990   -1.4540    2.0070 h1        1 MOL      0.186475
     60 N6          6.9500    0.1700   -0.7150 n         1 MOL     -0.246774
     61 C19         7.1770    1.5480   -1.1060 c3        1 MOL     -0.004386
     62 C20         5.9400    2.4990   -0.8860 c         1 MOL      0.659729
     63 O10         4.8890    1.9440   -0.6930 o         1 MOL     -0.592274
     64 C21         7.6790    1.5160   -2.6020 c3        1 MOL     -0.361086
     65 C22         9.0390    0.7830   -2.6570 c         1 MOL      0.738067
     66 N7          9.2260   -0.3410   -3.3890 n         1 MOL     -0.884646
     67 O11         9.9090    1.1830   -1.8920 o         1 MOL     -0.538364
     68 H28         6.3100   -0.4380   -1.1950 hn        1 MOL      0.184775
     69 H29         7.9770    1.9980   -0.5140 h1        1 MOL      0.069184
     70 H30         7.8790    2.5100   -3.0020 hc        1 MOL      0.086528
     71 H31         6.9580    1.0070   -3.2450 hc        1 MOL      0.086528
     72 H32         8.4110   -0.8130   -3.7560 hn        1 MOL      0.403247
     73 H33        10.0320   -0.8920   -3.1440 hn        1 MOL      0.403247
     74 N8          6.1060    3.8300   -1.0910 n         1 MOL     -0.519254
     75 C23         4.9980    4.7890   -1.1620 c3        1 MOL      0.020220
     76 C24         3.9200    4.7200    0.0000 c         1 MOL      0.514769
     77 O12         4.2800    4.3500    1.1350 o         1 MOL     -0.456485
     78 H34         7.0520    4.1280   -1.3110 hn        1 MOL      0.354881
     79 H35         4.4800    4.5720   -2.0880 h1        1 MOL      0.059872
     80 H36         5.3700    5.8080   -1.2560 h1        1 MOL      0.059872
     81 N9          2.6150    4.9130   -0.3060 n         1 MOL     -0.526925
     82 C25         1.5390    4.7830    0.6890 c3        1 MOL     -0.022934
     83 C26         1.3530    3.3290    1.1120 c         1 MOL      0.594965
     84 O13         2.0810    2.4910    0.6330 o         1 MOL     -0.461456
     85 C27         0.2630    5.4980    0.1570 c3        1 MOL     -0.136085
     86 C28         0.4660    6.9220   -0.0820 ca        1 MOL      0.151698
     87 C29         0.4490    7.8330    0.9900 ca        1 MOL     -0.198636
     88 C30         0.5850    7.3990   -1.3850 ca        1 MOL     -0.198636
     89 C31         0.5180    9.1950    0.7670 ca        1 MOL     -0.221801
     90 C32         0.5810    8.7990   -1.6540 ca        1 MOL     -0.221801
     91 C33         0.5440    9.6810   -0.5540 ca        1 MOL      0.324799
     92 O14         0.8210   10.9880   -0.7480 oh        1 MOL     -0.484990
     93 H37         2.3260    5.0710   -1.2660 hn        1 MOL      0.268351
     94 H38         1.8030    5.4010    1.5480 h1        1 MOL      0.129771
     95 H39        -0.5530    5.2300    0.8170 hc        1 MOL      0.040680
     96 H40        -0.0920    5.1070   -0.7950 hc        1 MOL      0.040680
     97 H41         0.4790    7.4310    1.9820 ha        1 MOL      0.126896
     98 H42         0.6110    6.6400   -2.1530 ha        1 MOL      0.126896
     99 H43         0.4830    9.8930    1.5960 ha        1 MOL      0.154864
    100 H44         0.8630    9.1960   -2.6180 ha        1 MOL      0.154864
    101 H45         1.0380   11.4400    0.0750 ho        1 MOL      0.379112
    102 N10         0.3730    3.0880    1.9640 n         1 MOL     -0.577057
    103 C34        -0.0390    1.7830    2.5760 c3        1 MOL     -0.078067
    104 C35        -0.1800    0.6340    1.4890 c         1 MOL      0.473410
    105 O15         0.7470    0.1370    0.8390 o         1 MOL     -0.339927
    106 C36         0.9700    1.4100    3.7390 c3        1 MOL      0.261769
    107 C37         0.6580    0.0340    4.3520 c3        1 MOL      0.032471
    108 C38         1.0820    2.6370    4.6990 c3        1 MOL     -0.253445
    109 C39        -0.4230    0.0380    5.4290 c3        1 MOL     -0.218246
    110 H46        -0.1500    3.9090    2.2320 hn        1 MOL      0.332246
    111 H47        -0.9920    2.0330    3.0550 h1        1 MOL      0.110921
    112 H48         1.9530    1.3400    3.2790 hc        1 MOL      0.008656
    113 H49         1.5390   -0.4660    4.7500 hc        1 MOL     -0.022536
    114 H50         0.4180   -0.6840    3.5660 hc        1 MOL     -0.022536
    115 H51         1.8180    2.3690    5.4650 hc        1 MOL      0.063532
    116 H52         1.4010    3.5370    4.1740 hc        1 MOL      0.063532
    117 H53         0.1520    2.8180    5.2230 hc        1 MOL      0.063532
    118 H54        -0.5460   -0.9930    5.7530 hc        1 MOL      0.052111
    119 H55        -0.3530    0.7660    6.2400 hc        1 MOL      0.052111
    120 H56        -1.3760    0.3280    4.9900 hc        1 MOL      0.052111
    121 N11        -1.4320    0.1550    1.3770 n         1 MOL     -0.464680
    122 C40        -1.7090   -1.0040    0.5270 c3        1 MOL     -0.061130
    123 C41        -3.1970   -1.1460    0.1030 c         1 MOL      0.416549
    124 O16        -3.6500   -2.1160   -0.5360 o         1 MOL     -0.523412
    125 C42        -1.3310   -2.3360    1.2300 c3        1 MOL      0.337967
    126 O17        -1.6850   -2.2710    2.5710 oh        1 MOL     -0.594641
    127 H57        -2.1690    0.3970    2.0160 hn        1 MOL      0.315751
    128 H58        -1.1530   -0.9590   -0.4070 h1        1 MOL      0.141092
    129 H59        -0.2440   -2.2480    1.2490 h1        1 MOL     -0.031707
    130 H60        -1.7300   -3.1850    0.6760 h1        1 MOL     -0.031707
    131 H61        -1.5240   -3.1230    2.9680 ho        1 MOL      0.396630
    132 N12        -4.1020   -0.2630    0.5620 n         1 MOL     -0.300073
    133 C43        -5.5020   -0.2880    0.2190 c3        1 MOL      0.074148
    134 C44        -5.7630    0.4210   -1.1790 c         1 MOL      0.674003
    135 O18        -4.8650    1.1480   -1.5500 o         1 MOL     -0.597216
    136 C45        -6.3220    0.2580    1.3990 c3        1 MOL     -0.401599
    137 H62        -3.8220    0.5820    1.0400 hn        1 MOL      0.208998
    138 H63        -5.7770   -1.3150   -0.0240 h1        1 MOL      0.114215
    139 H64        -6.3000   -0.5100    2.1740 hc        1 MOL      0.123605
    140 H65        -5.9870    1.2070    1.8230 hc        1 MOL      0.123605
    141 H66        -7.3340    0.3610    1.0250 hc        1 MOL      0.123605
    142 N13        -6.8620    0.2750   -1.9910 n         1 MOL     -0.697959
    143 C46        -7.8570   -0.8040   -1.8680 c3        1 MOL      0.294324
    144 C47        -9.2500   -0.2620   -2.2850 c         1 MOL      0.335167
    145 O19        -9.3180    0.4610   -3.3240 o         1 MOL     -0.513860
    146 C48        -7.4960   -2.0220   -2.7440 c3        1 MOL     -0.243874
    147 H67        -6.8130    0.8190   -2.8450 hn        1 MOL      0.364266
    148 H68        -7.7920   -1.1240   -0.8330 h1        1 MOL      0.001973
    149 H69        -6.5440   -2.3390   -2.3170 hc        1 MOL      0.074936
    150 H70        -8.1990   -2.8650   -2.7170 hc        1 MOL      0.074936
    151 H71        -7.3340   -1.7610   -3.7860 hc        1 MOL      0.074936
    152 N14       -10.3560   -0.4810   -1.5500 n         1 MOL     -0.130494
    153 C49       -10.4230   -0.9330   -0.1560 c3        1 MOL     -0.387403
    154 C50       -10.0140    0.0130    0.9750 c         1 MOL      0.570287
    155 O20        -9.9270   -0.2970    2.2150 o         1 MOL     -0.547059
    156 C51       -11.8990   -1.3550    0.0620 c3        1 MOL     -0.029279
    157 C52       -12.9290   -0.1700   -0.0340 c3        1 MOL     -0.120973
    158 C53       -13.8180   -0.2170   -1.2190 c         1 MOL      0.708320
    159 O21       -13.3470   -0.0890   -2.3500 o         1 MOL     -0.669394
    160 O22       -15.0310   -0.5120   -1.0510 o         1 MOL     -0.669394
    161 H72       -11.2150   -0.1900   -1.9990 hn        1 MOL      0.212747
    162 H73        -9.8460   -1.8540   -0.0400 h1        1 MOL      0.133790
    163 H74       -12.0500   -1.8030    1.0490 hc        1 MOL      0.071486
    164 H75       -12.2160   -2.0820   -0.6770 hc        1 MOL      0.071486
    165 H76       -12.3700    0.7420   -0.2470 hc        1 MOL      0.012264
    166 H77       -13.5090   -0.0690    0.8810 hc        1 MOL      0.012264
    167 N15        -9.6830    1.2760    0.6350 n         1 MOL     -0.225225
    168 C54        -9.2660    2.3740    1.5400 c3        1 MOL     -0.329062
    169 H78        -8.2110    2.5960    1.3790 h1        1 MOL      0.131796
    170 H79        -9.8600    3.2630    1.3310 h1        1 MOL      0.131796
    171 H80        -9.4190    2.0700    2.5760 h1        1 MOL      0.131796
    172 H81        -9.7840    1.5030   -0.3410 hn        1 MOL      0.254197
    173 Ca1         2.8260    0.4000   -0.9280 Ca        1 MOL      1.752867
    174 O23         1.1360   -1.1700   -2.1090 oh        1 MOL     -0.968063
    175 H82         1.8090   -1.6450   -2.5890 ho        1 MOL      0.463021
    176 H83         0.3940   -1.1400   -2.7180 ho        1 MOL      0.463021
    177 O24         1.0710    2.3540   -1.9900 oh        1 MOL     -0.968063
    178 H84         1.3910    3.1890   -2.3360 ho        1 MOL      0.463021
    179 H85         0.1210    2.4720   -1.9170 ho        1 MOL      0.463021
@<TRIPOS>BOND
     1    1    2 1   
     2    1    4 1   
     3    1    5 1   
     4    1    6 1   
     5    2    3 2   
     6    2    7 1   
     7    7    8 1   
     8    7   15 1   
     9    8    9 1   
    10    8   11 1   
    11    8   16 1   
    12    9   10 2   
    13    9   19 1   
    14   11   12 1   
    15   11   17 1   
    16   11   18 1   
    17   12   13 1   
    18   12   14 1   
    19   19   20 1   
    20   19   28 1   
    21   20   21 1   
    22   20   23 1   
    23   20   29 1   
    24   21   22 2   
    25   21   41 1   
    26   23   24 1   
    27   23   30 1   
    28   23   31 1   
    29   24   25 1   
    30   24   32 1   
    31   24   33 1   
    32   25   26 1   
    33   25   34 1   
    34   25   35 1   
    35   26   27 1   
    36   26   36 1   
    37   26   37 1   
    38   27   38 1   
    39   27   39 1   
    40   27   40 1   
    41   41   42 1   
    42   41   49 1   
    43   42   43 1   
    44   42   45 1   
    45   42   50 1   
    46   43   44 2   
    47   43   53 1   
    48   45   46 1   
    49   45   51 1   
    50   45   52 1   
    51   46   47 1   
    52   46   48 1   
    53   53   54 1   
    54   53   57 1   
    55   54   55 1   
    56   54   58 1   
    57   54   59 1   
    58   55   56 2   
    59   55   60 1   
    60   60   61 1   
    61   60   68 1   
    62   61   62 1   
    63   61   64 1   
    64   61   69 1   
    65   62   63 2   
    66   62   74 1   
    67   64   65 1   
    68   64   70 1   
    69   64   71 1   
    70   65   66 1   
    71   65   67 2   
    72   66   72 1   
    73   66   73 1   
    74   74   75 1   
    75   74   78 1   
    76   75   76 1   
    77   75   79 1   
    78   75   80 1   
    79   76   77 2   
    80   76   81 1   
    81   81   82 1   
    82   81   93 1   
    83   82   83 1   
    84   82   85 1   
    85   82   94 1   
    86   83   84 2   
    87   83  102 1   
    88   85   86 1   
    89   85   95 1   
    90   85   96 1   
    91   86   87 ar  
    92   86   88 ar  
    93   87   89 ar  
    94   87   97 1   
    95   88   90 ar  
    96   88   98 1   
    97   89   91 ar  
    98   89   99 1   
    99   90   91 ar  
   100   90  100 1   
   101   91   92 1   
   102   92  101 1   
   103  102  103 1   
   104  102  110 1   
   105  103  104 1   
   106  103  106 1   
   107  103  111 1   
   108  104  105 2   
   109  104  121 1   
   110  106  107 1   
   111  106  108 1   
   112  106  112 1   
   113  107  109 1   
   114  107  113 1   
   115  107  114 1   
   116  108  115 1   
   117  108  116 1   
   118  108  117 1   
   119  109  118 1   
   120  109  119 1   
   121  109  120 1   
   122  121  122 1   
   123  121  127 1   
   124  122  123 1   
   125  122  125 1   
   126  122  128 1   
   127  123  124 2   
   128  123  132 1   
   129  125  126 1   
   130  125  129 1   
   131  125  130 1   
   132  126  131 1   
   133  132  133 1   
   134  132  137 1   
   135  133  134 1   
   136  133  136 1   
   137  133  138 1   
   138  134  135 2   
   139  134  142 1   
   140  136  139 1   
   141  136  140 1   
   142  136  141 1   
   143  142  143 1   
   144  142  147 1   
   145  143  144 1   
   146  143  146 1   
   147  143  148 1   
   148  144  145 2   
   149  144  152 1   
   150  146  149 1   
   151  146  150 1   
   152  146  151 1   
   153  152  153 1   
   154  152  161 1   
   155  153  154 1   
   156  153  156 1   
   157  153  162 1   
   158  154  155 2   
   159  154  167 1   
   160  156  157 1   
   161  156  163 1   
   162  156  164 1   
   163  157  158 1   
   164  157  165 1   
   165  157  166 1   
   166  158  159 1   
   167  158  160 1   
   168  167  168 1   
   169  167  172 1   
   170  168  169 1   
   171  168  170 1   
   172  168  171 1   
   173  174  175 1   
   174  174  176 1   
   175  177  178 1   
   176  177  179 1   
@<TRIPOS>SUBSTRUCTURE
     1 MOL         1 TEMP              0 ****  ****    0 ROOT
