@<TRIPOS>MOLECULE
MOL
  184   179     1     0     0
SMALL
resp


@<TRIPOS>ATOM
      1 C1         10.3160   -4.3510   -4.9400 c3        1 MOL     -0.390289
      2 C2          9.2320   -3.4580   -4.3530 c         1 MOL      0.731282
      3 O1          8.2880   -3.1290   -5.0000 o         1 MOL     -0.590306
      4 H1         10.2410   -4.3470   -6.0270 hc        1 MOL      0.097634
      5 H2         11.2950   -3.9780   -4.6420 hc        1 MOL      0.097634
      6 H3         10.1870   -5.3690   -4.5710 hc        1 MOL      0.097634
      7 N1          9.2970   -3.0940   -3.0600 n         1 MOL     -0.670021
      8 C3         10.2900   -3.4180   -1.9630 c3        1 MOL      0.300729
      9 C4         11.1730   -2.2470   -1.5870 c         1 MOL      0.614603
     10 O2         12.3650   -2.4510   -1.2310 o         1 MOL     -0.599343
     11 C5          9.5850   -4.0080   -0.6870 c3        1 MOL     -0.226216
     12 C6          8.3860   -3.1730   -0.1260 c         1 MOL      0.757982
     13 O3          8.1610   -2.0310   -0.6490 o         1 MOL     -0.754574
     14 O4          7.7270   -3.4970    0.8630 o         1 MOL     -0.754574
     15 H4          8.5570   -2.5140   -2.7050 hn        1 MOL      0.357125
     16 H5         11.0010   -4.1630   -2.3110 h1        1 MOL     -0.023779
     17 H6         10.3670   -4.1900    0.0480 hc        1 MOL      0.053138
     18 H7          9.1480   -4.9480   -1.0330 hc        1 MOL      0.053138
     19 N2         10.6220   -1.0470   -1.6130 n         1 MOL     -0.690404
     20 C7         11.4470    0.1960   -1.4710 c3        1 MOL      0.309481
     21 C8         10.7860    1.1660   -0.4780 c         1 MOL      0.331479
     22 O5         11.3720    2.1850   -0.1400 o         1 MOL     -0.538035
     23 C9         11.7430    0.9480   -2.8170 c3        1 MOL     -0.304852
     24 H8          9.6920   -0.8970   -1.9570 hn        1 MOL      0.381200
     25 H9         12.4590    0.0620   -1.1160 h1        1 MOL      0.060910
     26 H10        10.8440    1.4480   -3.1720 hc        1 MOL      0.084472
     27 H11        12.4830    1.7410   -2.7460 hc        1 MOL      0.084472
     28 H12        12.2230    0.3280   -3.5730 hc        1 MOL      0.084472
     29 N3          9.5550    0.8330    0.0000 n         1 MOL     -0.083689
     30 C10         8.8350    1.6280    0.9880 c3        1 MOL      0.063073
     31 C11         8.0920    0.7370    2.0710 c         1 MOL      0.162534
     32 O6          7.9160   -0.4810    2.0120 o         1 MOL     -0.395631
     33 C12         7.8180    2.4870    0.2900 c3        1 MOL     -0.048193
     34 C13         6.9510    1.7770   -0.7050 c         1 MOL      0.667571
     35 O7          6.3490    0.7260   -0.3340 o         1 MOL     -0.678793
     36 O8          6.8530    2.2610   -1.8570 o         1 MOL     -0.678793
     37 H13         9.1520   -0.0470   -0.2940 hn        1 MOL      0.090625
     38 H14         9.4610    2.3330    1.5430 h1        1 MOL      0.047007
     39 H15         8.4260    3.2550   -0.1710 hc        1 MOL      0.008788
     40 H16         7.1670    3.0310    0.9840 hc        1 MOL      0.008788
     41 N4          7.6140    1.3810    3.1660 n         1 MOL     -0.150801
     42 C14         6.6500    0.7670    4.1020 c3        1 MOL     -0.421958
     43 C15         5.1930    0.7150    3.5160 c         1 MOL      0.809728
     44 O9          5.1000    0.2810    2.3970 o         1 MOL     -0.647474
     45 H17         7.8170    2.3580    3.2120 hn        1 MOL      0.249327
     46 H18         6.5320    1.4150    4.9800 h1        1 MOL      0.145738
     47 H19         6.9580   -0.2340    4.3800 h1        1 MOL      0.145738
     48 N5          4.1560    1.0730    4.2970 n         1 MOL     -0.613412
     49 C16         2.7370    0.9100    3.8760 c3        1 MOL      0.046812
     50 C17         2.2520    2.1820    3.2400 c         1 MOL      0.743842
     51 O10         2.5040    3.2290    3.8040 o         1 MOL     -0.567464
     52 C18         1.8690    0.4110    5.0960 c3        1 MOL     -0.347511
     53 C19         2.2770   -1.0030    5.5740 c         1 MOL      0.760000
     54 N6          3.4050   -1.0880    6.1920 n         1 MOL     -0.820406
     55 O11         1.7060   -2.0240    5.2960 o         1 MOL     -0.555144
     56 H20         4.3590    1.4350    5.2110 hn        1 MOL      0.330349
     57 H21         2.6160    0.1430    3.1230 h1        1 MOL      0.084118
     58 H22         0.8460    0.2270    4.7750 hc        1 MOL      0.114861
     59 H23         1.9060    1.1670    5.8840 hc        1 MOL      0.114861
     60 H24         3.8580   -0.2840    6.6020 hn        1 MOL      0.357221
     61 H25         3.8660   -1.9760    6.0720 hn        1 MOL      0.357221
     62 N7          1.4500    2.1570    2.1470 n         1 MOL     -0.671250
     63 C20         0.7680    3.2730    1.5310 c3        1 MOL      0.126390
     64 C21         1.1560    3.5890    0.0360 c         1 MOL      0.590865
     65 O12         2.1440    3.0340   -0.4690 o         1 MOL     -0.522214
     66 H26         1.3310    1.2400    1.7510 hn        1 MOL      0.359066
     67 H27         1.0800    4.1820    2.0550 h1        1 MOL      0.090739
     68 H28        -0.3160    3.1720    1.5190 h1        1 MOL      0.090739
     69 N8          0.5040    4.5700   -0.6420 n         1 MOL     -0.636758
     70 C22        -0.6880    5.3710   -0.1680 c3        1 MOL      0.021804
     71 C23        -1.9870    4.5390   -0.4520 c         1 MOL      0.523241
     72 O13        -2.8860    4.6020    0.2710 o         1 MOL     -0.562448
     73 C24        -0.7540    6.7210   -0.8990 c3        1 MOL      0.583092
     74 C25        -1.7290    7.7420   -0.2240 c3        1 MOL     -0.375095
     75 O14         0.4500    7.3950   -1.0890 oh        1 MOL     -0.631683
     76 H29         0.8630    4.7420   -1.5690 hn        1 MOL      0.313437
     77 H30        -0.6000    5.4920    0.9180 h1        1 MOL      0.031236
     78 H31        -1.1630    6.4780   -1.8800 h1        1 MOL     -0.091234
     79 H32         0.8220    6.9010   -1.8260 ho        1 MOL      0.370718
     80 H33        -2.6270    7.1950    0.0930 hc        1 MOL      0.093149
     81 H34        -1.2820    8.2970    0.6120 hc        1 MOL      0.093149
     82 H35        -2.0370    8.4200   -1.0170 hc        1 MOL      0.093149
     83 N9         -2.0640    3.6980   -1.4930 n         1 MOL     -0.352645
     84 C26        -3.2740    3.0580   -1.9590 c3        1 MOL     -0.142211
     85 C27        -3.1160    1.5500   -1.7620 c         1 MOL      0.581204
     86 O15        -2.1870    0.9540   -2.2520 o         1 MOL     -0.600794
     87 C28        -3.7080    3.4720   -3.3440 c3        1 MOL      0.026986
     88 C29        -4.1030    4.9770   -3.3720 c3        1 MOL     -0.019422
     89 C30        -4.9880    2.6920   -3.6900 c3        1 MOL     -0.013579
     90 C31        -4.6830    5.5200   -4.7070 c3        1 MOL     -0.140910
     91 H36        -1.1980    3.4610   -1.9570 hn        1 MOL      0.231095
     92 H37        -4.0700    3.4360   -1.3220 h1        1 MOL      0.196559
     93 H38        -2.9980    3.3360   -4.1530 hc        1 MOL      0.024954
     94 H39        -3.2050    5.5330   -3.1210 hc        1 MOL     -0.008745
     95 H40        -4.7180    5.1140   -2.4840 hc        1 MOL     -0.008745
     96 H41        -5.4620    3.0570   -4.6070 hc        1 MOL      0.020150
     97 H42        -4.7970    1.6390   -3.9050 hc        1 MOL      0.020150
     98 H43        -5.6470    2.7700   -2.8270 hc        1 MOL      0.020150
     99 H44        -5.6490    5.1100   -4.9840 hc        1 MOL      0.039311
    100 H45        -4.9350    6.5810   -4.6950 hc        1 MOL      0.039311
    101 H46        -3.9830    5.4550   -5.5380 hc        1 MOL      0.039311
    102 N10        -3.8300    0.7590   -0.9840 n         1 MOL     -0.368037
    103 C32        -4.8240    1.1620   -0.0100 c3        1 MOL      0.228174
    104 C33        -5.9200    0.0890    0.2600 c         1 MOL      0.611030
    105 O16        -5.7870   -1.0670   -0.0700 o         1 MOL     -0.482363
    106 C34        -4.1730    1.4990    1.3640 c3        1 MOL     -0.430569
    107 C35        -3.4580    0.2230    1.9600 c         1 MOL      0.762188
    108 O17        -2.7190   -0.5030    1.3000 o         1 MOL     -0.728564
    109 O18        -3.6640   -0.0420    3.1550 o         1 MOL     -0.728564
    110 H47        -3.5750   -0.2170   -0.9210 hn        1 MOL      0.285970
    111 H48        -5.3550    2.0350   -0.3800 h1        1 MOL     -0.026343
    112 H49        -4.9510    1.8750    2.0230 hc        1 MOL      0.074056
    113 H50        -3.4220    2.2760    1.3090 hc        1 MOL      0.074056
    114 N11        -7.0230    0.5720    0.8710 n         1 MOL     -0.702001
    115 C36        -8.1240   -0.2070    1.2840 c3        1 MOL      0.565111
    116 C37        -9.3330   -0.0920    0.3310 c         1 MOL     -0.028726
    117 O19        -9.5110    1.0010   -0.3020 o         1 MOL     -0.446555
    118 C38        -8.4000    0.1280    2.7950 c3        1 MOL     -0.156393
    119 C39        -9.4390   -0.7530    3.4370 ca        1 MOL      0.136526
    120 C40       -10.7910   -0.3180    3.3440 ca        1 MOL     -0.233960
    121 C41        -9.0710   -1.9330    4.1060 ca        1 MOL     -0.233960
    122 C42       -11.8240   -1.1290    3.9880 ca        1 MOL     -0.056354
    123 C43       -10.0860   -2.6660    4.7780 ca        1 MOL     -0.056354
    124 C44       -11.4750   -2.2860    4.7180 ca        1 MOL     -0.223462
    125 H51        -7.0910    1.5620    1.0320 hn        1 MOL      0.343147
    126 H52        -7.7290   -1.2230    1.2390 h1        1 MOL     -0.016523
    127 H53        -8.7010    1.1760    2.8250 hc        1 MOL      0.038544
    128 H54        -7.4960    0.1220    3.4010 hc        1 MOL      0.038544
    129 H55       -11.0330    0.6560    2.9260 ha        1 MOL      0.152734
    130 H56        -8.0480   -2.2680    4.1800 ha        1 MOL      0.152734
    131 H57       -12.8380   -0.7620    3.9630 ha        1 MOL      0.092615
    132 H58        -9.8430   -3.5440    5.3640 ha        1 MOL      0.092615
    133 H59       -12.1820   -2.9000    5.2400 ha        1 MOL      0.127982
    134 N12       -10.0320   -1.2120    0.1320 n         1 MOL      0.248920
    135 C45        -9.5810   -2.5640    0.4500 c3        1 MOL      0.063936
    136 C46        -8.4520   -3.0040   -0.4510 c         1 MOL      0.486339
    137 O20        -7.6410   -3.8060   -0.0110 o         1 MOL     -0.599106
    138 C47       -10.7100   -3.5250    0.4180 c3        1 MOL     -0.017800
    139 C48       -11.5860   -2.8930   -0.7150 c3        1 MOL     -0.017109
    140 C49       -11.3860   -1.3780   -0.5070 c3        1 MOL     -0.200926
    141 H60        -9.1940   -2.5390    1.4730 h1        1 MOL      0.013429
    142 H61       -10.3300   -4.5140    0.1730 hc        1 MOL      0.005043
    143 H62       -11.2710   -3.4160    1.3520 hc        1 MOL      0.005043
    144 H63       -11.1500   -3.2980   -1.6330 hc        1 MOL      0.018311
    145 H64       -12.5930   -3.2760   -0.5860 hc        1 MOL      0.018311
    146 H65       -11.4260   -0.8040   -1.4370 h1        1 MOL      0.074332
    147 H66       -12.0980   -1.0270    0.2430 h1        1 MOL      0.074332
    148 N13        -8.4530   -2.6210   -1.6750 n         1 MOL     -0.361270
    149 C50        -7.3060   -2.7510   -2.5460 c3        1 MOL      0.346513
    150 C51        -7.2900   -4.2110   -3.1240 c         1 MOL      0.348884
    151 O21        -7.9410   -4.4950   -4.1300 o         1 MOL     -0.561990
    152 C52        -7.3870   -1.7340   -3.7190 c3        1 MOL     -0.060064
    153 C53        -7.3550   -0.3060   -3.2500 c3        1 MOL      0.199068
    154 C54        -7.8300    0.6760   -4.3520 c         1 MOL      0.755291
    155 O22        -8.8310    1.3180   -4.1240 o         1 MOL     -0.755037
    156 O23        -7.2650    0.6110   -5.4630 o         1 MOL     -0.755037
    157 H67        -9.1570   -1.9540   -1.9600 hn        1 MOL      0.269334
    158 H68        -6.4120   -2.5530   -1.9410 h1        1 MOL     -0.004723
    159 H69        -8.3130   -1.8950   -4.2690 hc        1 MOL     -0.013525
    160 H70        -6.5330   -1.9090   -4.3820 hc        1 MOL     -0.013525
    161 H71        -6.3740    0.0500   -2.9280 hc        1 MOL     -0.160970
    162 H72        -8.0680   -0.3030   -2.4230 hc        1 MOL     -0.160970
    163 N14        -6.6050   -5.2180   -2.5090 n         1 MOL     -0.286117
    164 C55        -5.4960   -5.0690   -1.5210 c3        1 MOL     -0.189732
    165 H73        -5.8980   -4.6980   -0.5780 h1        1 MOL      0.089319
    166 H74        -5.0220   -6.0360   -1.3570 h1        1 MOL      0.089319
    167 H75        -4.7600   -4.3630   -1.9040 h1        1 MOL      0.089319
    168 H76        -6.7170   -6.1410   -2.9020 hn        1 MOL      0.243074
    169 Ca1         5.9900   -1.5580    0.7160 Ca        1 MOL      1.861523
    170 O24         4.5290   -3.7750   -0.2010 oh        1 MOL     -0.860116
    171 H77         3.6100   -3.9530   -0.3860 ho        1 MOL      0.420540
    172 H78         4.8540   -4.5820    0.1880 ho        1 MOL      0.420540
    173 O25         5.9110   -1.6960   -2.4870 oh        1 MOL     -0.860116
    174 H79         5.9010   -1.1850   -3.2950 ho        1 MOL      0.420540
    175 H80         5.0110   -1.6450   -2.1710 ho        1 MOL      0.420540
    176 O26         5.9360   -3.1690    2.9770 oh        1 MOL     -0.860116
    177 H81         5.2430   -3.8290    2.9530 ho        1 MOL      0.420540
    178 H82         6.6030   -3.5470    3.5610 ho        1 MOL      0.420540
    179 O27         3.8070   -0.6710   -0.8230 oh        1 MOL     -0.860116
    180 H83         3.0100   -1.1740   -0.9950 ho        1 MOL      0.420540
    181 H84         3.8430   -0.0320   -1.5310 ho        1 MOL      0.420540
    182 O28         3.4870   -2.0430    1.8870 oh        1 MOL     -0.860116
    183 H85         2.7920   -1.3790    1.7990 ho        1 MOL      0.420540
    184 H86         3.1190   -2.6780    2.5080 ho        1 MOL      0.420540
@<TRIPOS>BOND
     1    1    2 1   
     2    1    4 1   
     3    1    5 1   
     4    1    6 1   
     5    2    3 2   
     6    2    7 1   
     7    7    8 1   
     8    7   15 1   
     9    8    9 1   
    10    8   11 1   
    11    8   16 1   
    12    9   10 2   
    13    9   19 1   
    14   11   12 1   
    15   11   17 1   
    16   11   18 1   
    17   12   13 1   
    18   12   14 1   
    19   19   20 1   
    20   19   24 1   
    21   20   21 1   
    22   20   23 1   
    23   20   25 1   
    24   21   22 2   
    25   21   29 1   
    26   23   26 1   
    27   23   27 1   
    28   23   28 1   
    29   29   30 1   
    30   29   37 1   
    31   30   31 1   
    32   30   33 1   
    33   30   38 1   
    34   31   32 2   
    35   31   41 1   
    36   33   34 1   
    37   33   39 1   
    38   33   40 1   
    39   34   35 1   
    40   34   36 1   
    41   41   42 1   
    42   41   45 1   
    43   42   43 1   
    44   42   46 1   
    45   42   47 1   
    46   43   44 2   
    47   43   48 1   
    48   48   49 1   
    49   48   56 1   
    50   49   50 1   
    51   49   52 1   
    52   49   57 1   
    53   50   51 2   
    54   50   62 1   
    55   52   53 1   
    56   52   58 1   
    57   52   59 1   
    58   53   54 1   
    59   53   55 2   
    60   54   60 1   
    61   54   61 1   
    62   62   63 1   
    63   62   66 1   
    64   63   64 1   
    65   63   67 1   
    66   63   68 1   
    67   64   65 2   
    68   64   69 1   
    69   69   70 1   
    70   69   76 1   
    71   70   71 1   
    72   70   73 1   
    73   70   77 1   
    74   71   72 2   
    75   71   83 1   
    76   73   74 1   
    77   73   75 1   
    78   73   78 1   
    79   74   80 1   
    80   74   81 1   
    81   74   82 1   
    82   75   79 1   
    83   83   84 1   
    84   83   91 1   
    85   84   85 1   
    86   84   87 1   
    87   84   92 1   
    88   85   86 2   
    89   85  102 1   
    90   87   88 1   
    91   87   89 1   
    92   87   93 1   
    93   88   90 1   
    94   88   94 1   
    95   88   95 1   
    96   89   96 1   
    97   89   97 1   
    98   89   98 1   
    99   90   99 1   
   100   90  100 1   
   101   90  101 1   
   102  102  103 1   
   103  102  110 1   
   104  103  104 1   
   105  103  106 1   
   106  103  111 1   
   107  104  105 2   
   108  104  114 1   
   109  106  107 1   
   110  106  112 1   
   111  106  113 1   
   112  107  108 1   
   113  107  109 1   
   114  114  115 1   
   115  114  125 1   
   116  115  116 1   
   117  115  118 1   
   118  115  126 1   
   119  116  117 2   
   120  116  134 1   
   121  118  119 1   
   122  118  127 1   
   123  118  128 1   
   124  119  120 ar  
   125  119  121 ar  
   126  120  122 ar  
   127  120  129 1   
   128  121  123 ar  
   129  121  130 1   
   130  122  124 ar  
   131  122  131 1   
   132  123  124 ar  
   133  123  132 1   
   134  124  133 1   
   135  134  135 1   
   136  134  140 1   
   137  135  136 1   
   138  135  138 1   
   139  135  141 1   
   140  136  137 2   
   141  136  148 1   
   142  138  139 1   
   143  138  142 1   
   144  138  143 1   
   145  139  140 1   
   146  139  144 1   
   147  139  145 1   
   148  140  146 1   
   149  140  147 1   
   150  148  149 1   
   151  148  157 1   
   152  149  150 1   
   153  149  152 1   
   154  149  158 1   
   155  150  151 2   
   156  150  163 1   
   157  152  153 1   
   158  152  159 1   
   159  152  160 1   
   160  153  154 1   
   161  153  161 1   
   162  153  162 1   
   163  154  155 1   
   164  154  156 1   
   165  163  164 1   
   166  163  168 1   
   167  164  165 1   
   168  164  166 1   
   169  164  167 1   
   170  170  171 1   
   171  170  172 1   
   172  173  174 1   
   173  173  175 1   
   174  176  177 1   
   175  176  178 1   
   176  179  180 1   
   177  179  181 1   
   178  182  183 1   
   179  182  184 1   
@<TRIPOS>SUBSTRUCTURE
     1 MOL         1 TEMP              0 ****  ****    0 ROOT
