@<TRIPOS>MOLECULE
MOL
  192   187     1     0     0
SMALL
resp


@<TRIPOS>ATOM
      1 C1          5.3170    2.1580    5.7930 c3        1 MOL     -0.296586
      2 C2          4.9440    1.8040    4.2490 c         1 MOL      0.628924
      3 O1          4.3810    2.6550    3.5570 o         1 MOL     -0.538366
      4 H1          5.0210    1.3290    6.4370 hc        1 MOL      0.079875
      5 H2          6.3910    2.3190    5.8800 hc        1 MOL      0.079875
      6 H3          4.7880    3.0600    6.0980 hc        1 MOL      0.079875
      7 N1          5.2180    0.5630    3.7590 n         1 MOL     -0.478091
      8 C3          4.8570    0.2220    2.3650 c3        1 MOL      0.236684
      9 C4          3.3670    0.1670    2.0030 c         1 MOL      0.030947
     10 O2          2.9710   -0.1930    0.8910 o         1 MOL     -0.072006
     11 C5          5.3820   -1.1550    1.9910 c3        1 MOL     -0.096148
     12 C6          6.8810   -1.3360    2.2440 c         1 MOL      0.657144
     13 O3          7.2760   -1.4830    3.4110 o         1 MOL     -0.673341
     14 O4          7.7390   -1.4260    1.2990 o         1 MOL     -0.673341
     15 H4          5.4920   -0.2100    4.3530 hn        1 MOL      0.269888
     16 H5          5.2220    0.9670    1.6570 h1        1 MOL      0.107664
     17 H6          5.1260   -1.4410    0.9710 hc        1 MOL     -0.013645
     18 H7          4.9220   -1.9280    2.6080 hc        1 MOL     -0.013645
     19 N2          2.5020    0.6470    2.8840 n         1 MOL     -0.236242
     20 C7          1.0150    0.6220    2.6880 c3        1 MOL      0.266921
     21 C8          0.4440    1.8750    1.9920 c         1 MOL      0.283949
     22 O5          0.6370    2.9870    2.5230 o         1 MOL     -0.504136
     23 C9          0.2760    0.2960    4.0500 c3        1 MOL     -0.321307
     24 C10         0.3750   -1.1760    4.4570 c3        1 MOL     -0.032387
     25 C11        -0.1200   -1.5320    5.8460 c3        1 MOL     -0.167351
     26 C12         0.6110   -0.7020    6.9780 c3        1 MOL      0.231266
     27 N3          0.3090   -1.2480    8.2850 n4        1 MOL     -0.349313
     28 H8          2.8420    1.0930    3.7210 hn        1 MOL      0.200678
     29 H9          0.8250   -0.1610    1.9450 h1        1 MOL      0.016989
     30 H10        -0.7750    0.5810    3.9520 hc        1 MOL      0.118841
     31 H11         0.7690    0.7480    4.9020 hc        1 MOL      0.118841
     32 H12         1.3760   -1.5580    4.3040 hc        1 MOL      0.054505
     33 H13        -0.2410   -1.7300    3.7350 hc        1 MOL      0.054505
     34 H14         0.0450   -2.5990    6.0270 hc        1 MOL      0.070340
     35 H15        -1.1760   -1.2550    5.8620 hc        1 MOL      0.070340
     36 H16         0.2940    0.3450    7.0260 hx        1 MOL      0.018753
     37 H17         1.6750   -0.7560    6.7660 hx        1 MOL      0.018753
     38 H18         0.8870   -0.8440    9.0090 hn        1 MOL      0.319944
     39 H19        -0.6870   -1.2440    8.4170 hn        1 MOL      0.319944
     40 H20         0.5200   -2.2390    8.2690 hn        1 MOL      0.319944
     41 N4         -0.3520    1.7560    0.9440 n         1 MOL      0.038197
     42 C13        -0.8950    0.6430    0.1330 c3        1 MOL     -0.722628
     43 C14        -1.4160   -0.5560    0.9130 c         1 MOL      0.356080
     44 O6         -0.7960   -1.6170    0.9840 o         1 MOL     -0.469292
     45 C15        -0.2080    0.4820   -1.2130 c3        1 MOL     -0.099742
     46 C16        -0.0800    1.7310   -2.0530 c         1 MOL      0.525578
     47 O7          0.6320    1.5850   -3.0870 o         1 MOL     -0.640752
     48 O8         -0.7350    2.7630   -1.8660 o         1 MOL     -0.640752
     49 H21        -0.6050    2.6220    0.4870 hn        1 MOL      0.106267
     50 H22        -1.8730    0.9660   -0.2020 h1        1 MOL      0.200862
     51 H23        -0.7300   -0.2200   -1.8780 hc        1 MOL      0.149766
     52 H24         0.7360   -0.0330   -1.0210 hc        1 MOL      0.149766
     53 N5         -2.4680   -0.4040    1.7200 n         1 MOL     -0.076468
     54 C17        -3.2240    0.8680    1.8590 c3        1 MOL      0.119307
     55 C18        -4.1900    0.8870    3.0450 c         1 MOL      0.455982
     56 O9         -4.1130   -0.0070    3.8720 o         1 MOL     -0.526904
     57 H25        -2.6220   -1.1190    2.4120 hn        1 MOL      0.183945
     58 H26        -3.7180    0.8470    0.8860 h1        1 MOL      0.027151
     59 H27        -2.6130    1.7650    1.9700 h1        1 MOL      0.027151
     60 N6         -5.0520    1.9170    3.2180 n         1 MOL     -0.494707
     61 C19        -5.4230    2.8630    2.0910 c3        1 MOL      0.096777
     62 C20        -6.5160    2.2570    1.1550 c         1 MOL      0.547934
     63 O10        -7.2710    1.3470    1.5380 o         1 MOL     -0.465748
     64 C21        -5.9190    4.2710    2.6120 c3        1 MOL     -0.224493
     65 C22        -7.1990    4.1620    3.5260 c         1 MOL      0.703048
     66 O11        -7.5350    3.0740    4.0340 o         1 MOL     -0.652722
     67 O12        -7.8530    5.2090    3.6870 o         1 MOL     -0.652722
     68 H28        -5.5480    1.9430    4.0990 hn        1 MOL      0.348700
     69 H29        -4.5810    3.0870    1.4360 h1        1 MOL     -0.021727
     70 H30        -6.0670    4.9210    1.7570 hc        1 MOL      0.037633
     71 H31        -5.1570    4.7610    3.2260 hc        1 MOL      0.037633
     72 N7         -6.5430    2.8210   -0.0700 n         1 MOL     -0.330884
     73 C23        -7.5250    2.4090   -1.1350 c3        1 MOL     -0.370959
     74 C24        -7.3830    0.9810   -1.6650 c         1 MOL      0.516085
     75 O13        -8.3260    0.4750   -2.2120 o         1 MOL     -0.522433
     76 H32        -5.8110    3.4700   -0.3170 hn        1 MOL      0.235082
     77 H33        -7.6210    3.0950   -1.9680 h1        1 MOL      0.195702
     78 H34        -8.5250    2.3370   -0.7130 h1        1 MOL      0.195702
     79 N8         -6.2000    0.3990   -1.6350 n         1 MOL     -0.187605
     80 C25        -5.8380   -0.9490   -2.0690 c3        1 MOL     -0.272539
     81 C26        -4.7680   -1.6210   -1.2430 c         1 MOL      0.563175
     82 O14        -3.6130   -1.1810   -1.2170 o         1 MOL     -0.360772
     83 C27        -5.4710   -0.8770   -3.5520 c3        1 MOL      0.303181
     84 C28        -4.3050    0.0470   -3.9040 c3        1 MOL      0.007460
     85 O15        -6.6510   -0.4790   -4.2780 oh        1 MOL     -0.627632
     86 H35        -5.3970    0.8720   -1.2440 hn        1 MOL      0.157008
     87 H36        -6.7120   -1.6070   -2.0030 h1        1 MOL      0.127435
     88 H37        -5.1620   -1.8500   -3.9060 h1        1 MOL      0.037581
     89 H38        -7.3530   -0.3230   -3.6550 ho        1 MOL      0.387993
     90 H39        -3.3560   -0.2460   -3.4660 hc        1 MOL     -0.000087
     91 H40        -4.2110   -0.0070   -4.9910 hc        1 MOL     -0.000087
     92 H41        -4.4930    1.1080   -3.7270 hc        1 MOL     -0.000087
     93 N9         -5.0450   -2.8340   -0.6930 n         1 MOL     -0.609905
     94 C29        -4.0520   -3.5470    0.1650 c3        1 MOL     -0.113507
     95 C30        -3.0380   -4.4040   -0.6300 c         1 MOL      0.417124
     96 O16        -2.5890   -5.4720   -0.1690 o         1 MOL     -0.520810
     97 C31        -4.7550   -4.3230    1.3430 c3        1 MOL      0.233353
     98 C32        -5.6410   -5.4350    0.7820 c3        1 MOL      0.213026
     99 C33        -5.4090   -3.2890    2.1770 c3        1 MOL     -0.172391
    100 C34        -6.6230   -6.0910    1.7410 c3        1 MOL     -0.375868
    101 H42        -5.9430   -3.3000   -0.7610 hn        1 MOL      0.359951
    102 H43        -3.4540   -2.7850    0.6620 h1        1 MOL      0.110064
    103 H44        -3.9070   -4.7960    1.8420 hc        1 MOL     -0.033255
    104 H45        -5.0080   -6.1370    0.2410 hc        1 MOL     -0.029865
    105 H46        -6.2670   -4.9970    0.0090 hc        1 MOL     -0.029865
    106 H47        -4.7580   -2.4750    2.5110 hc        1 MOL      0.031977
    107 H48        -6.2730   -2.9290    1.6260 hc        1 MOL      0.031977
    108 H49        -5.7940   -3.7300    3.0930 hc        1 MOL      0.031977
    109 H50        -7.2650   -5.2440    1.9970 hc        1 MOL      0.087684
    110 H51        -7.2210   -6.8520    1.2440 hc        1 MOL      0.087684
    111 H52        -5.9880   -6.4570    2.5510 hc        1 MOL      0.087684
    112 N10        -2.5940   -3.9100   -1.7740 n         1 MOL     -0.086646
    113 C35        -1.5910   -4.5590   -2.6390 c3        1 MOL     -0.253824
    114 C36        -0.1770   -4.4900   -2.1040 c         1 MOL      0.454659
    115 O17         0.6060   -5.4010   -2.4760 o         1 MOL     -0.534969
    116 C37        -1.6890   -4.2330   -4.1380 c3        1 MOL      0.314090
    117 C38        -1.5220   -2.7490   -4.3900 c3        1 MOL     -0.050797
    118 O18        -3.0300   -4.5980   -4.5900 oh        1 MOL     -0.664316
    119 H53        -2.9680   -3.0290   -2.1000 hn        1 MOL      0.162625
    120 H54        -1.9690   -5.5890   -2.6200 h1        1 MOL      0.143650
    121 H55        -0.9360   -4.8370   -4.6370 h1        1 MOL      0.051306
    122 H56        -3.0610   -5.0820   -5.4200 ho        1 MOL      0.404861
    123 H57        -2.4770   -2.2520   -4.2670 hc        1 MOL      0.017850
    124 H58        -0.7730   -2.3240   -3.7250 hc        1 MOL      0.017850
    125 H59        -1.2360   -2.6400   -5.4410 hc        1 MOL      0.017850
    126 N11         0.1720   -3.5200   -1.2670 n         1 MOL     -0.256261
    127 C39         1.5370   -3.0300   -0.8170 c3        1 MOL      0.104184
    128 C40         2.3730   -2.5780   -2.0250 c         1 MOL      0.425803
    129 O19         1.9770   -2.9610   -3.1340 o         1 MOL     -0.480110
    130 C41         2.2300   -4.0960   -0.0390 c3        1 MOL      0.345400
    131 C42         1.5550   -4.7880    1.1370 c3        1 MOL     -0.330377
    132 O20         3.4020   -3.5650    0.4930 oh        1 MOL     -0.565307
    133 H60        -0.5980   -2.9650   -0.9110 hn        1 MOL      0.161812
    134 H61         1.4330   -2.1740   -0.1440 h1        1 MOL      0.062804
    135 H62         2.5210   -4.8740   -0.7510 h1        1 MOL      0.008913
    136 H63         3.7070   -4.0940    1.2400 ho        1 MOL      0.372784
    137 H64         1.1180   -4.0390    1.7940 hc        1 MOL      0.081807
    138 H65         0.8220   -5.5400    0.8550 hc        1 MOL      0.081807
    139 H66         2.3250   -5.4250    1.5570 hc        1 MOL      0.081807
    140 N12         3.4510   -1.8290   -1.8120 n         1 MOL     -0.096738
    141 C43         4.3590   -1.2520   -2.8470 c3        1 MOL     -0.050261
    142 C44         4.7990    0.1900   -2.6270 c         1 MOL      0.633806
    143 O21         5.3870    0.7500   -3.5350 o         1 MOL     -0.592327
    144 C45         5.5900   -2.2070   -3.0640 c3        1 MOL     -0.257558
    145 C46         6.3070   -2.5190   -1.7170 c3        1 MOL      0.225049
    146 C47         7.4160   -3.4910   -2.0920 c3        1 MOL     -0.040660
    147 C48         7.7740   -4.4150   -1.0060 c3        1 MOL      0.194435
    148 N13         8.3580   -3.7660    0.1580 n4        1 MOL     -0.551261
    149 H67         3.6950   -1.6670   -0.8460 hn        1 MOL     -0.200816
    150 H68         3.7350   -1.1670   -3.7390 h1        1 MOL      0.085000
    151 H69         6.2920   -1.8160   -3.7930 hc        1 MOL      0.087498
    152 H70         5.1400   -3.1120   -3.4810 hc        1 MOL      0.087498
    153 H71         5.5830   -3.0860   -1.1410 hc        1 MOL     -0.013995
    154 H72         6.6580   -1.6030   -1.2310 hc        1 MOL     -0.013995
    155 H73         8.3150   -2.8930   -2.2670 hc        1 MOL      0.016542
    156 H74         7.2660   -4.1600   -2.9460 hc        1 MOL      0.016542
    157 H75         8.3800   -5.2190   -1.4110 hx        1 MOL      0.016833
    158 H76         6.8250   -4.8570   -0.6990 hx        1 MOL      0.016833
    159 H77         7.7970   -3.0030    0.5100 hn        1 MOL      0.351132
    160 H78         8.4900   -4.3890    0.9360 hn        1 MOL      0.351132
    161 H79         9.2270   -3.3080   -0.0700 hn        1 MOL      0.351132
    162 N14         4.6170    0.7000   -1.4420 n         1 MOL     -0.004290
    163 C49         4.7760    2.1700   -1.2470 c3        1 MOL     -0.705786
    164 C50         6.2530    2.6870   -0.9520 c         1 MOL      0.555493
    165 O22         6.9970    2.0600   -0.2210 o         1 MOL     -0.506954
    166 C51         3.7090    2.6380   -0.2370 c3        1 MOL      0.776315
    167 C52         3.4670    4.2090   -0.1870 c3        1 MOL     -0.306657
    168 C53         3.2740    4.8730   -1.5250 c         1 MOL      0.516148
    169 O23         2.1270    5.0210   -1.9960 o         1 MOL     -0.631059
    170 O24         4.2860    5.3540   -2.1000 o         1 MOL     -0.631059
    171 H80         4.1720    0.1610   -0.7200 hn        1 MOL     -0.001642
    172 H81         4.5280    2.5610   -2.2310 h1        1 MOL      0.231131
    173 H82         3.8360    2.3570    0.8090 hc        1 MOL     -0.128911
    174 H83         2.7790    2.1790   -0.5770 hc        1 MOL     -0.128911
    175 H84         4.2940    4.6920    0.3320 hc        1 MOL      0.046908
    176 H85         2.5560    4.4020    0.3710 hc        1 MOL      0.046908
    177 N15         6.4810    3.9240   -1.4090 n         1 MOL     -0.315434
    178 C54         7.7420    4.6310   -1.2960 c3        1 MOL     -0.062844
    179 H86         7.9770    5.1070   -2.2480 h1        1 MOL      0.054005
    180 H87         7.6640    5.3910   -0.5190 h1        1 MOL      0.054005
    181 H88         8.5320    3.9260   -1.0380 h1        1 MOL      0.054005
    182 H89         5.7810    4.3250   -2.0180 hn        1 MOL      0.328973
    183 Ca1        -0.3360    5.3570   -2.4210 Ca        1 MOL      1.567344
    184 O25         0.9960    6.4150   -4.4760 oh        1 MOL     -0.768928
    185 H90         1.8570    6.8180   -4.3520 ho        1 MOL      0.386844
    186 H91         0.5200    7.0300   -5.0270 ho        1 MOL      0.386844
    187 O26        -0.5720    3.5680   -4.4530 oh        1 MOL     -0.768928
    188 H92        -1.4250    3.2160   -4.6970 ho        1 MOL      0.386844
    189 H93        -0.1660    2.8610   -3.9440 ho        1 MOL      0.386844
    190 O27        -2.1430    6.2830   -4.2440 oh        1 MOL     -0.768928
    191 H94        -2.8900    6.5560   -3.7210 ho        1 MOL      0.386844
    192 H95        -2.0240    6.9790   -4.8860 ho        1 MOL      0.386844
@<TRIPOS>BOND
     1    1    2 1   
     2    1    4 1   
     3    1    5 1   
     4    1    6 1   
     5    2    3 2   
     6    2    7 1   
     7    7    8 1   
     8    7   15 1   
     9    8    9 1   
    10    8   11 1   
    11    8   16 1   
    12    9   10 2   
    13    9   19 1   
    14   11   12 1   
    15   11   17 1   
    16   11   18 1   
    17   12   13 1   
    18   12   14 1   
    19   19   20 1   
    20   19   28 1   
    21   20   21 1   
    22   20   23 1   
    23   20   29 1   
    24   21   22 2   
    25   21   41 1   
    26   23   24 1   
    27   23   30 1   
    28   23   31 1   
    29   24   25 1   
    30   24   32 1   
    31   24   33 1   
    32   25   26 1   
    33   25   34 1   
    34   25   35 1   
    35   26   27 1   
    36   26   36 1   
    37   26   37 1   
    38   27   38 1   
    39   27   39 1   
    40   27   40 1   
    41   41   42 1   
    42   41   49 1   
    43   42   43 1   
    44   42   45 1   
    45   42   50 1   
    46   43   44 2   
    47   43   53 1   
    48   45   46 1   
    49   45   51 1   
    50   45   52 1   
    51   46   47 1   
    52   46   48 1   
    53   53   54 1   
    54   53   57 1   
    55   54   55 1   
    56   54   58 1   
    57   54   59 1   
    58   55   56 2   
    59   55   60 1   
    60   60   61 1   
    61   60   68 1   
    62   61   62 1   
    63   61   64 1   
    64   61   69 1   
    65   62   63 2   
    66   62   72 1   
    67   64   65 1   
    68   64   70 1   
    69   64   71 1   
    70   65   66 1   
    71   65   67 1   
    72   72   73 1   
    73   72   76 1   
    74   73   74 1   
    75   73   77 1   
    76   73   78 1   
    77   74   75 2   
    78   74   79 1   
    79   79   80 1   
    80   79   86 1   
    81   80   81 1   
    82   80   83 1   
    83   80   87 1   
    84   81   82 2   
    85   81   93 1   
    86   83   84 1   
    87   83   85 1   
    88   83   88 1   
    89   84   90 1   
    90   84   91 1   
    91   84   92 1   
    92   85   89 1   
    93   93   94 1   
    94   93  101 1   
    95   94   95 1   
    96   94   97 1   
    97   94  102 1   
    98   95   96 2   
    99   95  112 1   
   100   97   98 1   
   101   97   99 1   
   102   97  103 1   
   103   98  100 1   
   104   98  104 1   
   105   98  105 1   
   106   99  106 1   
   107   99  107 1   
   108   99  108 1   
   109  100  109 1   
   110  100  110 1   
   111  100  111 1   
   112  112  113 1   
   113  112  119 1   
   114  113  114 1   
   115  113  116 1   
   116  113  120 1   
   117  114  115 2   
   118  114  126 1   
   119  116  117 1   
   120  116  118 1   
   121  116  121 1   
   122  117  123 1   
   123  117  124 1   
   124  117  125 1   
   125  118  122 1   
   126  126  127 1   
   127  126  133 1   
   128  127  128 1   
   129  127  130 1   
   130  127  134 1   
   131  128  129 2   
   132  128  140 1   
   133  130  131 1   
   134  130  132 1   
   135  130  135 1   
   136  131  137 1   
   137  131  138 1   
   138  131  139 1   
   139  132  136 1   
   140  140  141 1   
   141  140  149 1   
   142  141  142 1   
   143  141  144 1   
   144  141  150 1   
   145  142  143 2   
   146  142  162 1   
   147  144  145 1   
   148  144  151 1   
   149  144  152 1   
   150  145  146 1   
   151  145  153 1   
   152  145  154 1   
   153  146  147 1   
   154  146  155 1   
   155  146  156 1   
   156  147  148 1   
   157  147  157 1   
   158  147  158 1   
   159  148  159 1   
   160  148  160 1   
   161  148  161 1   
   162  162  163 1   
   163  162  171 1   
   164  163  164 1   
   165  163  166 1   
   166  163  172 1   
   167  164  165 2   
   168  164  177 1   
   169  166  167 1   
   170  166  173 1   
   171  166  174 1   
   172  167  168 1   
   173  167  175 1   
   174  167  176 1   
   175  168  169 1   
   176  168  170 1   
   177  177  178 1   
   178  177  182 1   
   179  178  179 1   
   180  178  180 1   
   181  178  181 1   
   182  184  185 1   
   183  184  186 1   
   184  187  188 1   
   185  187  189 1   
   186  190  191 1   
   187  190  192 1   
@<TRIPOS>SUBSTRUCTURE
     1 MOL         1 TEMP              0 ****  ****    0 ROOT
