@<TRIPOS>MOLECULE
MOL
  181   177     1     0     0
SMALL
resp


@<TRIPOS>ATOM
      1 C1          4.9180    7.9080   -1.9890 c3        1 MOL     -0.370728
      2 C2          5.8440    6.8700   -1.4840 c         1 MOL      0.657680
      3 O1          6.2470    7.1020   -0.3380 o         1 MOL     -0.587144
      4 H1          5.4820    8.8080   -2.2350 hc        1 MOL      0.086832
      5 H2          4.4130    7.5410   -2.8820 hc        1 MOL      0.086832
      6 H3          4.1790    8.1410   -1.2210 hc        1 MOL      0.086832
      7 N1          6.0260    5.7150   -2.0810 n         1 MOL     -0.434764
      8 C3          7.0120    4.7490   -1.6350 c3        1 MOL      0.144008
      9 C4          6.7570    4.1300   -0.2640 c         1 MOL      0.384172
     10 O2          7.7250    3.7200    0.4060 o         1 MOL     -0.458419
     11 C5          7.1660    3.6810   -2.7660 c3        1 MOL     -0.346307
     12 C6          8.1080    2.5590   -2.2960 c         1 MOL      0.790011
     13 O3          9.3230    2.8820   -2.1160 o         1 MOL     -0.739397
     14 O4          7.7290    1.4100   -2.1210 o         1 MOL     -0.739397
     15 H4          5.8060    5.6850   -3.0720 hn        1 MOL      0.267893
     16 H5          7.9640    5.2710   -1.5370 h1        1 MOL      0.055680
     17 H6          7.5390    4.1950   -3.6530 hc        1 MOL      0.040714
     18 H7          6.2000    3.2130   -2.9680 hc        1 MOL      0.040714
     19 N2          5.4690    4.0140    0.1790 n         1 MOL     -0.263094
     20 C7          4.9700    3.4120    1.4310 c3        1 MOL      0.181656
     21 C8          3.4680    2.9890    1.2530 c         1 MOL      0.432363
     22 O5          2.8160    3.2750    0.2420 o         1 MOL     -0.526510
     23 C9          5.2200    4.3660    2.6380 c3        1 MOL     -0.298265
     24 H8          4.7770    4.3770   -0.4640 hn        1 MOL      0.177086
     25 H9          5.5010    2.4860    1.6120 h1        1 MOL     -0.009401
     26 H10         6.3010    4.3980    2.7750 hc        1 MOL      0.086435
     27 H11         5.0530    5.4230    2.4020 hc        1 MOL      0.086435
     28 H12         4.7160    4.0830    3.5600 hc        1 MOL      0.086435
     29 N3          2.8610    2.2840    2.2170 n         1 MOL     -0.279109
     30 C10         3.4990    1.4620    3.2550 c3        1 MOL     -0.168036
     31 C11         3.9140    0.0610    2.7130 c         1 MOL      0.631481
     32 O6          3.1160   -0.6070    2.0700 o         1 MOL     -0.500369
     33 C12         2.4710    1.4880    4.4640 c3        1 MOL     -0.246344
     34 C13         1.0140    1.3700    4.1080 c         1 MOL      0.801856
     35 O7          0.2200    1.9030    4.9160 o         1 MOL     -0.706404
     36 O8          0.7220    0.6490    3.1830 o         1 MOL     -0.706404
     37 H13         1.8970    2.0180    2.0730 hn        1 MOL      0.218771
     38 H14         4.4290    1.9470    3.5610 h1        1 MOL      0.108973
     39 H15         2.6690    2.3740    5.0530 hc        1 MOL      0.051106
     40 H16         2.6730    0.6780    5.1580 hc        1 MOL      0.051106
     41 N4          5.1690   -0.2810    2.8840 n         1 MOL     -0.659047
     42 C14         5.8390   -1.3420    2.0910 c3        1 MOL      0.179279
     43 C15         6.1010   -0.9200    0.6280 c         1 MOL      0.440443
     44 O9          6.3170    0.2420    0.3300 o         1 MOL     -0.383310
     45 H17         5.7790    0.3520    3.3690 hn        1 MOL      0.356327
     46 H18         5.2360   -2.2420    2.1900 h1        1 MOL      0.028949
     47 H19         6.8220   -1.5990    2.4940 h1        1 MOL      0.028949
     48 N5          6.2350   -1.8150   -0.3080 n         1 MOL     -0.409769
     49 C16         5.9390   -3.2370   -0.3570 c3        1 MOL      0.010261
     50 C17         5.1120   -3.5940   -1.5960 c         1 MOL      0.466518
     51 O10         4.9700   -4.7730   -1.9770 o         1 MOL     -0.516825
     52 C18         7.2500   -4.0210   -0.3950 c3        1 MOL     -0.205323
     53 C19         8.1110   -3.8080    0.8470 c         1 MOL      0.656226
     54 N6          7.5120   -4.1420    1.9620 n         1 MOL     -0.781618
     55 O11         9.1120   -3.1560    0.8850 o         1 MOL     -0.525378
     56 H20         6.6380   -1.3530   -1.1190 hn        1 MOL      0.324071
     57 H21         5.3120   -3.5220    0.4840 h1        1 MOL      0.069835
     58 H22         7.8710   -3.7740   -1.2530 hc        1 MOL      0.069978
     59 H23         7.0840   -5.0980   -0.3940 hc        1 MOL      0.069978
     60 H24         6.5390   -4.4010    1.9650 hn        1 MOL      0.342102
     61 H25         7.9630   -3.8130    2.8070 hn        1 MOL      0.342102
     62 N7          4.4430   -2.5820   -2.2090 n         1 MOL     -0.076115
     63 C20         3.7340   -2.6750   -3.4040 c3        1 MOL     -0.371753
     64 C21         2.5530   -3.6470   -3.4010 c         1 MOL      0.616910
     65 O12         2.1790   -4.1570   -4.4390 o         1 MOL     -0.556450
     66 H26         4.6840   -1.6280   -1.9660 hn        1 MOL      0.183140
     67 H27         4.3350   -3.0480   -4.2350 h1        1 MOL      0.156239
     68 H28         3.3450   -1.6790   -3.6180 h1        1 MOL      0.156239
     69 N8          1.8090   -3.7000   -2.2970 n         1 MOL     -0.350957
     70 C22         0.5460   -4.3650   -2.2000 c3        1 MOL     -0.017869
     71 C23        -0.5310   -3.5020   -1.5750 c         1 MOL      0.574525
     72 O13        -0.1810   -2.6220   -0.7890 o         1 MOL     -0.604033
     73 C24         0.6870   -5.7390   -1.4380 c3        1 MOL      0.330801
     74 C25         1.5250   -6.6980   -2.2980 c3        1 MOL     -0.509552
     75 O14         1.2310   -5.6370   -0.1110 oh        1 MOL     -0.656785
     76 H29         2.0180   -3.1540   -1.4710 hn        1 MOL      0.262746
     77 H30         0.0950   -4.5740   -3.1690 h1        1 MOL      0.051202
     78 H31        -0.2910   -6.1780   -1.3270 h1        1 MOL      0.009882
     79 H32         1.5520   -6.5210    0.0970 ho        1 MOL      0.422314
     80 H33         1.2120   -7.7000   -2.0250 hc        1 MOL      0.140908
     81 H34         1.3440   -6.5140   -3.3650 hc        1 MOL      0.140908
     82 H35         2.5470   -6.3750   -2.1150 hc        1 MOL      0.140908
     83 N9         -1.7930   -3.7010   -1.9970 n         1 MOL     -0.441628
     84 C26        -2.9120   -2.9050   -1.5960 c3        1 MOL     -0.059216
     85 C27        -3.4670   -3.3030   -0.2600 c         1 MOL      0.451673
     86 O15        -3.8160   -4.4960   -0.0800 o         1 MOL     -0.573844
     87 C28        -3.9550   -2.8870   -2.7400 c3        1 MOL      0.398217
     88 C29        -5.0680   -1.9360   -2.3570 c3        1 MOL     -0.102845
     89 C30        -3.3190   -2.6460   -4.1240 c3        1 MOL     -0.403504
     90 C31        -6.3230   -1.8580   -3.2510 c3        1 MOL     -0.125638
     91 H36        -2.0190   -4.4930   -2.5790 hn        1 MOL      0.269790
     92 H37        -2.4610   -1.9180   -1.5000 h1        1 MOL      0.187315
     93 H38        -4.3190   -3.9090   -2.7730 hc        1 MOL     -0.054213
     94 H39        -4.7020   -0.9480   -2.0760 hc        1 MOL      0.029921
     95 H40        -5.4120   -2.3650   -1.4180 hc        1 MOL      0.029921
     96 H41        -2.5820   -3.3910   -4.3890 hc        1 MOL      0.087655
     97 H42        -4.1270   -2.9180   -4.8080 hc        1 MOL      0.087655
     98 H43        -2.8680   -1.6500   -4.1420 hc        1 MOL      0.087655
     99 H44        -6.8870   -2.7840   -3.3090 hc        1 MOL      0.020044
    100 H45        -7.0350   -1.1370   -2.8440 hc        1 MOL      0.020044
    101 H46        -6.1220   -1.6040   -4.2920 hc        1 MOL      0.020044
    102 N10        -3.5450   -2.3530    0.6860 n         1 MOL     -0.235670
    103 C32        -4.5210   -2.4280    1.7560 c3        1 MOL      0.110500
    104 C33        -5.8490   -1.7400    1.4840 c         1 MOL      0.497332
    105 O16        -6.9060   -2.1960    2.0020 o         1 MOL     -0.554819
    106 C34        -3.8650   -1.8440    2.9750 c3        1 MOL     -0.394468
    107 C35        -2.4310   -2.3480    3.2410 c         1 MOL      0.897958
    108 O17        -2.3690   -3.5140    3.6920 o         1 MOL     -0.743217
    109 O18        -1.4690   -1.5770    3.0870 o         1 MOL     -0.743217
    110 H47        -3.1000   -1.4740    0.4990 hn        1 MOL     -0.024280
    111 H48        -4.6820   -3.4840    1.9590 h1        1 MOL      0.071872
    112 H49        -4.4750   -1.9730    3.8630 hc        1 MOL      0.106336
    113 H50        -3.8120   -0.7600    2.8460 hc        1 MOL      0.106336
    114 N11        -5.8300   -0.5570    0.7860 n         1 MOL     -0.473225
    115 C36        -6.8930    0.4400    0.7300 c3        1 MOL      0.315756
    116 C37        -6.3600    1.8600    0.4050 c         1 MOL      0.174246
    117 O19        -6.6240    2.4430   -0.6620 o         1 MOL     -0.479964
    118 C38        -8.0460   -0.0180   -0.2470 c3        1 MOL     -0.144707
    119 C39        -9.4030    0.6000   -0.1430 ca        1 MOL      0.023970
    120 C40       -10.1000    0.4320    1.0870 ca        1 MOL     -0.077777
    121 C41       -10.0640    1.3950   -1.1310 ca        1 MOL     -0.077777
    122 C42       -11.3630    0.9830    1.3620 ca        1 MOL     -0.150090
    123 C43       -11.3860    1.8200   -0.9200 ca        1 MOL     -0.150090
    124 C44       -12.0140    1.6790    0.3210 ca        1 MOL     -0.143942
    125 H51        -4.9290   -0.2060    0.4880 hn        1 MOL      0.372737
    126 H52        -7.3920    0.6170    1.6790 h1        1 MOL     -0.016571
    127 H53        -8.1310   -1.1080   -0.1790 hc        1 MOL      0.075479
    128 H54        -7.6910    0.1350   -1.2680 hc        1 MOL      0.075479
    129 H55        -9.5700   -0.0910    1.8790 ha        1 MOL      0.092919
    130 H56        -9.7160    1.5070   -2.1550 ha        1 MOL      0.092919
    131 H57       -11.7610    0.8830    2.3640 ha        1 MOL      0.108983
    132 H58       -11.8610    2.4170   -1.6900 ha        1 MOL      0.108983
    133 H59       -12.8940    2.2430    0.5560 ha        1 MOL      0.107553
    134 N12        -5.5150    2.4080    1.2760 n         1 MOL      0.092628
    135 C45        -4.8220    3.6730    1.0830 c3        1 MOL     -0.015693
    136 C46        -4.0410    3.8950   -0.2090 c         1 MOL      0.292589
    137 O20        -4.0840    4.9870   -0.6930 o         1 MOL     -0.492640
    138 C47        -3.8620    3.7160    2.2670 c3        1 MOL      0.115715
    139 C48        -4.6360    3.1030    3.3830 c3        1 MOL     -0.125834
    140 C49        -5.4960    2.0740    2.6610 c3        1 MOL      0.133750
    141 H60        -5.5270    4.5010    1.2040 h1        1 MOL      0.028916
    142 H61        -2.9740    3.1600    1.9550 hc        1 MOL      0.003244
    143 H62        -3.5340    4.7280    2.5070 hc        1 MOL      0.003244
    144 H63        -4.0270    2.7020    4.1870 hc        1 MOL      0.041829
    145 H64        -5.3290    3.8880    3.6900 hc        1 MOL      0.041829
    146 H65        -5.1100    1.0600    2.7030 h1        1 MOL     -0.029330
    147 H66        -6.4500    2.1710    3.1840 h1        1 MOL     -0.029330
    148 N13        -3.3900    2.9440   -0.8600 n         1 MOL     -0.057036
    149 C50        -2.7570    2.9460   -2.1580 c3        1 MOL     -0.374391
    150 C51        -3.7010    3.5460   -3.2020 c         1 MOL      0.588754
    151 O21        -3.2300    4.4680   -3.8650 o         1 MOL     -0.549310
    152 C52        -2.3280    1.5330   -2.5550 c3        1 MOL      0.003876
    153 C53        -1.3390    0.9350   -1.4930 c3        1 MOL     -0.220255
    154 C54        -2.0110    0.3940   -0.2510 c         1 MOL      0.772065
    155 O22        -1.2380   -0.0770    0.6120 o         1 MOL     -0.695175
    156 O23        -3.2560    0.3640   -0.1420 o         1 MOL     -0.695175
    157 H67        -3.4440    2.0740   -0.3490 hn        1 MOL      0.166613
    158 H68        -1.8580    3.5600   -2.1350 h1        1 MOL      0.182326
    159 H69        -1.7830    1.5360   -3.5010 hc        1 MOL      0.011743
    160 H70        -3.0950    0.7890   -2.7480 hc        1 MOL      0.011743
    161 H71        -0.4530    1.5440   -1.3120 hc        1 MOL      0.084171
    162 H72        -0.9020    0.0670   -1.9820 hc        1 MOL      0.084171
    163 N14        -4.9530    3.0860   -3.3530 n         1 MOL     -0.214234
    164 C55        -5.9100    3.5350   -4.3850 c3        1 MOL     -0.308657
    165 H73        -6.7420    2.8330   -4.4380 h1        1 MOL      0.113433
    166 H74        -6.2870    4.5240   -4.1270 h1        1 MOL      0.113433
    167 H75        -5.4090    3.5780   -5.3520 h1        1 MOL      0.113433
    168 H76        -5.2970    2.3070   -2.8150 hn        1 MOL      0.239660
    169 Ca1         0.6740   -1.4940    1.6030 Ca        1 MOL      1.831378
    170 O24         2.6410   -3.3060    0.6260 oh        1 MOL     -0.921716
    171 H77         2.1030   -4.0840    0.5110 ho        1 MOL      0.430357
    172 H78         3.2380   -3.5350    1.3340 ho        1 MOL      0.430357
    173 O25        -0.2730   -4.2500    1.9510 oh        1 MOL     -0.921716
    174 H79        -0.4600   -5.0410    1.4380 ho        1 MOL      0.430357
    175 H80        -1.0420   -4.1370    2.5030 ho        1 MOL      0.430357
    176 O26         1.3850   -2.2940    4.0950 oh        1 MOL     -0.921716
    177 H81         0.7770   -2.7090    4.7080 ho        1 MOL      0.430357
    178 H82         2.1880   -2.1790    4.6010 ho        1 MOL      0.430357
    179 O27         1.8570    0.3770   -0.2510 oh        1 MOL     -0.921716
    180 H83         1.4800    1.2590   -0.2580 ho        1 MOL      0.430357
    181 H84         2.7810    0.5010   -0.4650 ho        1 MOL      0.430357
@<TRIPOS>BOND
     1    1    2 1   
     2    1    4 1   
     3    1    5 1   
     4    1    6 1   
     5    2    3 2   
     6    2    7 1   
     7    7    8 1   
     8    7   15 1   
     9    8    9 1   
    10    8   11 1   
    11    8   16 1   
    12    9   10 2   
    13    9   19 1   
    14   11   12 1   
    15   11   17 1   
    16   11   18 1   
    17   12   13 1   
    18   12   14 1   
    19   19   20 1   
    20   19   24 1   
    21   20   21 1   
    22   20   23 1   
    23   20   25 1   
    24   21   22 2   
    25   21   29 1   
    26   23   26 1   
    27   23   27 1   
    28   23   28 1   
    29   29   30 1   
    30   29   37 1   
    31   30   31 1   
    32   30   33 1   
    33   30   38 1   
    34   31   32 2   
    35   31   41 1   
    36   33   34 1   
    37   33   39 1   
    38   33   40 1   
    39   34   35 1   
    40   34   36 1   
    41   41   42 1   
    42   41   45 1   
    43   42   43 1   
    44   42   46 1   
    45   42   47 1   
    46   43   44 2   
    47   43   48 1   
    48   48   49 1   
    49   48   56 1   
    50   49   50 1   
    51   49   52 1   
    52   49   57 1   
    53   50   51 2   
    54   50   62 1   
    55   52   53 1   
    56   52   58 1   
    57   52   59 1   
    58   53   54 1   
    59   53   55 2   
    60   54   60 1   
    61   54   61 1   
    62   62   63 1   
    63   62   66 1   
    64   63   64 1   
    65   63   67 1   
    66   63   68 1   
    67   64   65 2   
    68   64   69 1   
    69   69   70 1   
    70   69   76 1   
    71   70   71 1   
    72   70   73 1   
    73   70   77 1   
    74   71   72 2   
    75   71   83 1   
    76   73   74 1   
    77   73   75 1   
    78   73   78 1   
    79   74   80 1   
    80   74   81 1   
    81   74   82 1   
    82   75   79 1   
    83   83   84 1   
    84   83   91 1   
    85   84   85 1   
    86   84   87 1   
    87   84   92 1   
    88   85   86 2   
    89   85  102 1   
    90   87   88 1   
    91   87   89 1   
    92   87   93 1   
    93   88   90 1   
    94   88   94 1   
    95   88   95 1   
    96   89   96 1   
    97   89   97 1   
    98   89   98 1   
    99   90   99 1   
   100   90  100 1   
   101   90  101 1   
   102  102  103 1   
   103  102  110 1   
   104  103  104 1   
   105  103  106 1   
   106  103  111 1   
   107  104  105 2   
   108  104  114 1   
   109  106  107 1   
   110  106  112 1   
   111  106  113 1   
   112  107  108 1   
   113  107  109 1   
   114  114  115 1   
   115  114  125 1   
   116  115  116 1   
   117  115  118 1   
   118  115  126 1   
   119  116  117 2   
   120  116  134 1   
   121  118  119 1   
   122  118  127 1   
   123  118  128 1   
   124  119  120 ar  
   125  119  121 ar  
   126  120  122 ar  
   127  120  129 1   
   128  121  123 ar  
   129  121  130 1   
   130  122  124 ar  
   131  122  131 1   
   132  123  124 ar  
   133  123  132 1   
   134  124  133 1   
   135  134  135 1   
   136  134  140 1   
   137  135  136 1   
   138  135  138 1   
   139  135  141 1   
   140  136  137 2   
   141  136  148 1   
   142  138  139 1   
   143  138  142 1   
   144  138  143 1   
   145  139  140 1   
   146  139  144 1   
   147  139  145 1   
   148  140  146 1   
   149  140  147 1   
   150  148  149 1   
   151  148  157 1   
   152  149  150 1   
   153  149  152 1   
   154  149  158 1   
   155  150  151 2   
   156  150  163 1   
   157  152  153 1   
   158  152  159 1   
   159  152  160 1   
   160  153  154 1   
   161  153  161 1   
   162  153  162 1   
   163  154  155 1   
   164  154  156 1   
   165  163  164 1   
   166  163  168 1   
   167  164  165 1   
   168  164  166 1   
   169  164  167 1   
   170  170  171 1   
   171  170  172 1   
   172  173  174 1   
   173  173  175 1   
   174  176  177 1   
   175  176  178 1   
   176  179  180 1   
   177  179  181 1   
@<TRIPOS>SUBSTRUCTURE
     1 MOL         1 TEMP              0 ****  ****    0 ROOT
