@<TRIPOS>MOLECULE
MOL
  187   181     1     0     0
SMALL
resp


@<TRIPOS>ATOM
      1 C1         -3.7310   -3.1470   -3.7610 c3        1 MOL     -0.435687
      2 C2         -4.7220   -3.7450   -2.7070 c         1 MOL      0.668584
      3 O1         -4.4770   -3.7400   -1.4630 o         1 MOL     -0.613291
      4 H1         -2.9760   -3.8920   -4.0120 hc        1 MOL      0.110971
      5 H2         -4.2800   -2.8700   -4.6610 hc        1 MOL      0.110971
      6 H3         -3.2450   -2.2650   -3.3450 hc        1 MOL      0.110971
      7 N1         -5.8420   -4.2990   -3.1360 n         1 MOL     -0.535917
      8 C3         -6.9050   -4.7800   -2.1960 c3        1 MOL      0.132852
      9 C4         -7.4960   -3.6100   -1.4590 c         1 MOL      0.632344
     10 O2         -7.6670   -2.5340   -1.9940 o         1 MOL     -0.557637
     11 C5         -7.8530   -5.5950   -3.0000 c3        1 MOL     -0.412410
     12 C6         -7.2500   -6.5680   -4.0520 c         1 MOL      0.798285
     13 O3         -7.5680   -6.5370   -5.2660 o         1 MOL     -0.732977
     14 O4         -6.5590   -7.5370   -3.6780 o         1 MOL     -0.732977
     15 H4         -6.0980   -4.1870   -4.1040 hn        1 MOL      0.319700
     16 H5         -6.4620   -5.3260   -1.3720 h1        1 MOL      0.053906
     17 H6         -8.5170   -4.8430   -3.4420 hc        1 MOL      0.084314
     18 H7         -8.4560   -6.1940   -2.3150 hc        1 MOL      0.084314
     19 N2         -7.9690   -3.8650   -0.2680 n         1 MOL     -0.598800
     20 C7         -8.6490   -2.8490    0.5910 c3        1 MOL      0.366944
     21 C8         -8.4090   -3.0270    2.1230 c         1 MOL      0.413755
     22 O5         -8.2590   -4.1130    2.5800 o         1 MOL     -0.529769
     23 C9        -10.1670   -2.8290    0.2770 c3        1 MOL     -0.154009
     24 H8         -7.7900   -4.8040    0.0820 hn        1 MOL      0.278822
     25 H9         -8.2500   -1.8940    0.2470 h1        1 MOL      0.007933
     26 H10       -10.4270   -2.0810   -0.4750 hc        1 MOL      0.035456
     27 H11       -10.5560   -3.7750   -0.0960 hc        1 MOL      0.035456
     28 H12       -10.7160   -2.5880    1.1840 hc        1 MOL      0.035456
     29 N3         -8.4700   -1.9400    2.9220 n         1 MOL     -0.334529
     30 C10        -8.6870   -0.5720    2.5740 c3        1 MOL      0.036267
     31 C11        -7.4940    0.1890    1.8850 c         1 MOL      0.529215
     32 O6         -6.4460   -0.4200    1.6820 o         1 MOL     -0.535532
     33 C12        -9.1280    0.2030    3.8180 c3        1 MOL     -0.225510
     34 C13        -8.2160    0.1540    5.0610 c         1 MOL      0.739064
     35 O7         -8.0210   -0.9420    5.5930 o         1 MOL     -0.710739
     36 O8         -7.8630    1.2570    5.5500 o         1 MOL     -0.710739
     37 H13        -8.2050   -2.0070    3.8900 hn        1 MOL      0.259348
     38 H14        -9.5080   -0.5540    1.8610 h1        1 MOL      0.009273
     39 H15       -10.1210   -0.1550    4.0760 hc        1 MOL      0.027437
     40 H16        -9.0880    1.2440    3.4940 hc        1 MOL      0.027437
     41 N4         -7.7230    1.4290    1.3620 n         1 MOL     -0.577844
     42 C14        -6.7940    2.3330    0.6540 c3        1 MOL      0.311969
     43 C15        -7.2620    2.7830   -0.7390 c         1 MOL      0.466068
     44 O9         -8.0730    2.1490   -1.4030 o         1 MOL     -0.508574
     45 H17        -8.6490    1.7520    1.5940 hn        1 MOL      0.316230
     46 H18        -5.7580    2.0070    0.5640 h1        1 MOL      0.007445
     47 H19        -6.7790    3.1370    1.3810 h1        1 MOL      0.007445
     48 N5         -6.6390    3.8240   -1.3790 n         1 MOL     -0.578343
     49 C16        -5.5810    4.8090   -1.0660 c3        1 MOL      0.116026
     50 C17        -4.6170    4.9850   -2.2380 c         1 MOL      0.639027
     51 O10        -4.5330    6.1000   -2.8560 o         1 MOL     -0.506030
     52 C18        -6.3630    6.1270   -0.5630 c3        1 MOL     -0.340188
     53 C19        -7.0480    6.0050    0.7430 c         1 MOL      0.789016
     54 N6         -6.3160    5.6190    1.7630 n         1 MOL     -0.836728
     55 O11        -8.1770    6.4010    0.8840 o         1 MOL     -0.574257
     56 H20        -7.1040    3.8960   -2.2750 hn        1 MOL      0.335897
     57 H21        -5.0720    4.4180   -0.1770 h1        1 MOL     -0.027997
     58 H22        -7.0470    6.5160   -1.3210 hc        1 MOL      0.101228
     59 H23        -5.6130    6.9060   -0.4610 hc        1 MOL      0.101228
     60 H24        -5.3440    5.4110    1.6180 hn        1 MOL      0.379216
     61 H25        -6.6370    5.7370    2.7220 hn        1 MOL      0.379216
     62 N7         -3.7790    3.9270   -2.4850 n         1 MOL     -0.607558
     63 C20        -2.9310    3.9350   -3.7080 c3        1 MOL      0.084503
     64 C21        -1.6360    4.6730   -3.4980 c         1 MOL      0.461684
     65 O12        -1.2200    5.5580   -4.2070 o         1 MOL     -0.494623
     66 H26        -3.7340    3.1500   -1.8500 hn        1 MOL      0.377498
     67 H27        -3.3400    4.4280   -4.5920 h1        1 MOL      0.059514
     68 H28        -2.7560    2.8950   -3.9570 h1        1 MOL      0.059514
     69 N8         -0.8560    4.0780   -2.6150 n         1 MOL     -0.390145
     70 C22         0.3390    4.7310   -1.9850 c3        1 MOL     -0.004594
     71 C23         1.2180    3.6210   -1.4310 c         1 MOL      0.517272
     72 O13         0.8560    2.4350   -1.3740 o         1 MOL     -0.600731
     73 C24        -0.1890    5.4820   -0.7650 c3        1 MOL      0.301892
     74 C25        -0.7860    6.8300   -1.1460 c3        1 MOL     -0.536803
     75 O14        -1.1850    4.7980   -0.0320 oh        1 MOL     -0.579282
     76 H29        -1.2640    3.3300   -2.0680 hn        1 MOL      0.244336
     77 H30         0.8490    5.4450   -2.6330 h1        1 MOL      0.108252
     78 H31         0.5740    5.6800   -0.0270 h1        1 MOL      0.052310
     79 H32        -0.8690    3.9730    0.3380 ho        1 MOL      0.380230
     80 H33        -0.8040    7.4650   -0.2680 hc        1 MOL      0.150599
     81 H34        -0.2950    7.3540   -1.9630 hc        1 MOL      0.150599
     82 H35        -1.8250    6.7670   -1.4690 hc        1 MOL      0.150599
     83 N9          2.4830    3.9160   -1.1240 n         1 MOL     -0.338742
     84 C26         3.5730    2.9650   -0.8360 c3        1 MOL     -0.016804
     85 C27         3.8610    2.9530    0.6260 c         1 MOL      0.409843
     86 O15         4.1140    3.9920    1.1730 o         1 MOL     -0.532816
     87 C28         4.8070    3.3240   -1.7060 c3        1 MOL     -0.007335
     88 C29         6.1200    2.5970   -1.4370 c3        1 MOL      0.411846
     89 C30         4.4380    2.9080   -3.1900 c3        1 MOL     -0.202415
     90 C31         7.3290    3.1620   -2.1990 c3        1 MOL     -0.330182
     91 H36         2.7200    4.8920   -1.0620 hn        1 MOL      0.217870
     92 H37         3.2190    1.9670   -1.0980 h1        1 MOL      0.186791
     93 H38         5.1150    4.3610   -1.6310 hc        1 MOL      0.033982
     94 H39         6.0710    1.5610   -1.7460 hc        1 MOL     -0.134230
     95 H40         6.3280    2.4910   -0.3780 hc        1 MOL     -0.134230
     96 H41         4.2800    1.8330   -3.2870 hc        1 MOL      0.043321
     97 H42         3.5990    3.5060   -3.5340 hc        1 MOL      0.043321
     98 H43         5.2810    3.2210   -3.8030 hc        1 MOL      0.043321
     99 H44         8.2210    3.0440   -1.5790 hc        1 MOL      0.064253
    100 H45         7.3480    2.6850   -3.1870 hc        1 MOL      0.064253
    101 H46         7.2750    4.2510   -2.2780 hc        1 MOL      0.064253
    102 N10         3.8610    1.7940    1.3260 n         1 MOL     -0.219991
    103 C32         4.3670    1.6450    2.7180 c3        1 MOL      0.151153
    104 C33         5.7490    1.0920    2.8010 c         1 MOL      0.254343
    105 O16         6.4560    1.2330    3.8130 o         1 MOL     -0.542282
    106 C34         3.3940    0.9530    3.6890 c3        1 MOL      0.077907
    107 C35         1.9670    1.1720    3.3430 c         1 MOL      0.518607
    108 O17         1.1800    0.2250    3.1550 o         1 MOL     -0.660295
    109 O18         1.5270    2.3740    3.3900 o         1 MOL     -0.660295
    110 H47         3.6250    0.9480    0.8360 hn        1 MOL      0.111747
    111 H48         4.4370    2.6310    3.1910 h1        1 MOL      0.062484
    112 H49         3.6300    1.2460    4.7100 hc        1 MOL     -0.027138
    113 H50         3.7090   -0.0790    3.5380 hc        1 MOL     -0.027138
    114 N11         6.2260    0.4460    1.7370 n         1 MOL      0.007971
    115 C36         7.5620   -0.1340    1.6830 c3        1 MOL      0.040324
    116 C37         7.4350   -1.3380    0.6220 c         1 MOL      0.275325
    117 O19         8.0190   -1.2380   -0.4840 o         1 MOL     -0.353420
    118 C38         8.5670    1.0150    1.3080 c3        1 MOL     -0.305796
    119 C39         9.9560    0.4700    1.3510 ca        1 MOL      0.214276
    120 C40        10.3600   -0.1250    2.5720 ca        1 MOL     -0.193592
    121 C41        10.9140    0.6550    0.3180 ca        1 MOL     -0.193592
    122 C42        11.6570   -0.6460    2.6800 ca        1 MOL     -0.144345
    123 C43        12.1490    0.0450    0.4140 ca        1 MOL     -0.144345
    124 C44        12.5180   -0.6650    1.5620 ca        1 MOL     -0.091695
    125 H51         5.5890    0.2100    0.9950 hn        1 MOL      0.200555
    126 H52         7.7410   -0.5060    2.6940 h1        1 MOL      0.040408
    127 H53         8.6250    1.8000    2.0600 hc        1 MOL      0.127070
    128 H54         8.3780    1.3390    0.2840 hc        1 MOL      0.127070
    129 H55         9.8010    0.1150    3.4650 ha        1 MOL      0.134341
    130 H56        10.7110    1.1840   -0.6070 ha        1 MOL      0.134341
    131 H57        11.9210   -1.2450    3.5340 ha        1 MOL      0.110485
    132 H58        12.8270    0.0050   -0.4240 ha        1 MOL      0.110485
    133 H59        13.5140   -1.0610    1.7350 ha        1 MOL      0.085493
    134 N12         6.7570   -2.4290    1.0880 n         1 MOL     -0.184636
    135 C45         6.7210   -3.7190    0.3750 c3        1 MOL      0.024672
    136 C46         6.4450   -3.5850   -1.0970 c         1 MOL      0.317152
    137 O20         6.7720   -4.5130   -1.8310 o         1 MOL     -0.539958
    138 C47         5.5290   -4.4110    1.0270 c3        1 MOL      0.102901
    139 C48         5.5560   -3.9090    2.4570 c3        1 MOL     -0.246938
    140 C49         5.8910   -2.4620    2.2600 c3        1 MOL      0.216931
    141 H60         7.6520   -4.2760    0.4470 h1        1 MOL      0.069103
    142 H61         4.6070   -4.0920    0.5470 hc        1 MOL      0.004791
    143 H62         5.5630   -5.4870    0.8360 hc        1 MOL      0.004791
    144 H63         4.5980   -4.0560    2.9440 hc        1 MOL      0.047072
    145 H64         6.3590   -4.3780    3.0300 hc        1 MOL      0.047072
    146 H65         4.9930   -1.8610    2.1500 h1        1 MOL     -0.012444
    147 H66         6.4400   -2.0820    3.1340 h1        1 MOL     -0.012444
    148 N13         5.6860   -2.6240   -1.4930 n         1 MOL      0.023067
    149 C50         5.3170   -2.3120   -2.8430 c3        1 MOL     -0.385404
    150 C51         6.5450   -2.0480   -3.7790 c         1 MOL      0.597777
    151 O21         6.4530   -2.2660   -4.9530 o         1 MOL     -0.556654
    152 C52         4.2740   -1.1580   -2.8120 c3        1 MOL      0.078565
    153 C53         3.0870   -1.4510   -1.8780 c3        1 MOL     -0.581753
    154 C54         3.4160   -1.3200   -0.3970 c         1 MOL      0.622542
    155 O22         2.7020   -1.8970    0.4380 o         1 MOL     -0.682173
    156 O23         4.4350   -0.6410   -0.0740 o         1 MOL     -0.682173
    157 H67         5.4800   -1.9010   -0.8070 hn        1 MOL      0.224405
    158 H68         4.8100   -3.2370   -3.1250 h1        1 MOL      0.144729
    159 H69         3.8980   -0.8500   -3.7820 hc        1 MOL      0.065776
    160 H70         4.7530   -0.2210   -2.5320 hc        1 MOL      0.065776
    161 H71         2.7630   -2.4690   -2.0610 hc        1 MOL      0.184072
    162 H72         2.3520   -0.6760   -2.0910 hc        1 MOL      0.184072
    163 N14         7.6170   -1.5500   -3.1730 n         1 MOL     -0.194611
    164 C55         8.9030   -1.5070   -3.8430 c3        1 MOL     -0.156625
    165 H73         9.4030   -2.4690   -3.7300 h1        1 MOL      0.069643
    166 H74         8.7550   -1.2990   -4.9020 h1        1 MOL      0.069643
    167 H75         9.5180   -0.7250   -3.4000 h1        1 MOL      0.069643
    168 H76         7.6550   -1.3830   -2.1730 hn        1 MOL      0.143571
    169 Ca1         0.4380   -1.9960    1.9910 Ca        1 MOL      1.740155
    170 O24        -2.1120   -1.9210    0.9230 oh        1 MOL     -0.844591
    171 O25        -0.7320   -4.2850    2.8920 oh        1 MOL     -0.844591
    172 H77        -2.6930   -1.2000    0.6710 ho        1 MOL      0.425417
    173 H78        -1.4510   -4.6040    3.4230 ho        1 MOL      0.425417
    174 H79        -2.5690   -2.7110    0.6480 ho        1 MOL      0.425417
    175 H80        -0.2880   -5.0780    2.5890 ho        1 MOL      0.425417
    176 O26         0.1310   -0.0720    0.2400 oh        1 MOL     -0.844591
    177 H81         0.0870    0.7980    0.6530 ho        1 MOL      0.425417
    178 H82         0.1550    0.1050   -0.7010 ho        1 MOL      0.425417
    179 O27        -1.5110   -1.4130    3.5960 oh        1 MOL     -0.844591
    180 H83        -2.4040   -1.5410    3.2840 ho        1 MOL      0.425417
    181 H84        -1.5950   -0.8890    4.3960 ho        1 MOL      0.425417
    182 O28         2.0190   -3.3850    3.5930 oh        1 MOL     -0.844591
    183 H85         2.5990   -3.0200    4.2540 ho        1 MOL      0.425417
    184 H86         1.9930   -4.3180    3.7770 ho        1 MOL      0.425417
    185 O29         0.4140   -3.6690   -0.0890 oh        1 MOL     -0.844591
    186 H87         1.2440   -4.0620   -0.3440 ho        1 MOL      0.425417
    187 H88        -0.1760   -3.8730   -0.8150 ho        1 MOL      0.425417
@<TRIPOS>BOND
     1    1    2 1   
     2    1    4 1   
     3    1    5 1   
     4    1    6 1   
     5    2    3 2   
     6    2    7 1   
     7    7    8 1   
     8    7   15 1   
     9    8    9 1   
    10    8   11 1   
    11    8   16 1   
    12    9   10 2   
    13    9   19 1   
    14   11   12 1   
    15   11   17 1   
    16   11   18 1   
    17   12   13 1   
    18   12   14 1   
    19   19   20 1   
    20   19   24 1   
    21   20   21 1   
    22   20   23 1   
    23   20   25 1   
    24   21   22 2   
    25   21   29 1   
    26   23   26 1   
    27   23   27 1   
    28   23   28 1   
    29   29   30 1   
    30   29   37 1   
    31   30   31 1   
    32   30   33 1   
    33   30   38 1   
    34   31   32 2   
    35   31   41 1   
    36   33   34 1   
    37   33   39 1   
    38   33   40 1   
    39   34   35 1   
    40   34   36 1   
    41   41   42 1   
    42   41   45 1   
    43   42   43 1   
    44   42   46 1   
    45   42   47 1   
    46   43   44 2   
    47   43   48 1   
    48   48   49 1   
    49   48   56 1   
    50   49   50 1   
    51   49   52 1   
    52   49   57 1   
    53   50   51 2   
    54   50   62 1   
    55   52   53 1   
    56   52   58 1   
    57   52   59 1   
    58   53   54 1   
    59   53   55 2   
    60   54   60 1   
    61   54   61 1   
    62   62   63 1   
    63   62   66 1   
    64   63   64 1   
    65   63   67 1   
    66   63   68 1   
    67   64   65 2   
    68   64   69 1   
    69   69   70 1   
    70   69   76 1   
    71   70   71 1   
    72   70   73 1   
    73   70   77 1   
    74   71   72 2   
    75   71   83 1   
    76   73   74 1   
    77   73   75 1   
    78   73   78 1   
    79   74   80 1   
    80   74   81 1   
    81   74   82 1   
    82   75   79 1   
    83   83   84 1   
    84   83   91 1   
    85   84   85 1   
    86   84   87 1   
    87   84   92 1   
    88   85   86 2   
    89   85  102 1   
    90   87   88 1   
    91   87   89 1   
    92   87   93 1   
    93   88   90 1   
    94   88   94 1   
    95   88   95 1   
    96   89   96 1   
    97   89   97 1   
    98   89   98 1   
    99   90   99 1   
   100   90  100 1   
   101   90  101 1   
   102  102  103 1   
   103  102  110 1   
   104  103  104 1   
   105  103  106 1   
   106  103  111 1   
   107  104  105 2   
   108  104  114 1   
   109  106  107 1   
   110  106  112 1   
   111  106  113 1   
   112  107  108 1   
   113  107  109 1   
   114  114  115 1   
   115  114  125 1   
   116  115  116 1   
   117  115  118 1   
   118  115  126 1   
   119  116  117 2   
   120  116  134 1   
   121  118  119 1   
   122  118  127 1   
   123  118  128 1   
   124  119  120 ar  
   125  119  121 ar  
   126  120  122 ar  
   127  120  129 1   
   128  121  123 ar  
   129  121  130 1   
   130  122  124 ar  
   131  122  131 1   
   132  123  124 ar  
   133  123  132 1   
   134  124  133 1   
   135  134  135 1   
   136  134  140 1   
   137  135  136 1   
   138  135  138 1   
   139  135  141 1   
   140  136  137 2   
   141  136  148 1   
   142  138  139 1   
   143  138  142 1   
   144  138  143 1   
   145  139  140 1   
   146  139  144 1   
   147  139  145 1   
   148  140  146 1   
   149  140  147 1   
   150  148  149 1   
   151  148  157 1   
   152  149  150 1   
   153  149  152 1   
   154  149  158 1   
   155  150  151 2   
   156  150  163 1   
   157  152  153 1   
   158  152  159 1   
   159  152  160 1   
   160  153  154 1   
   161  153  161 1   
   162  153  162 1   
   163  154  155 1   
   164  154  156 1   
   165  163  164 1   
   166  163  168 1   
   167  164  165 1   
   168  164  166 1   
   169  164  167 1   
   170  170  172 1   
   171  170  174 1   
   172  171  173 1   
   173  171  175 1   
   174  176  177 1   
   175  176  178 1   
   176  179  180 1   
   177  179  181 1   
   178  182  183 1   
   179  182  184 1   
   180  185  186 1   
   181  185  187 1   
@<TRIPOS>SUBSTRUCTURE
     1 MOL         1 TEMP              0 ****  ****    0 ROOT
