@<TRIPOS>MOLECULE
MOL
  181   177     1     0     0
SMALL
resp


@<TRIPOS>ATOM
      1 C1          1.9450   -1.1880    4.6360 c3        1 MOL     -0.348326
      2 C2          2.6990   -0.0240    3.8120 c         1 MOL      0.638695
      3 O1          2.0590    0.6770    3.0020 o         1 MOL     -0.515183
      4 H1          2.6810   -1.7960    5.1600 hc        1 MOL      0.084450
      5 H2          1.2640   -0.7390    5.3590 hc        1 MOL      0.084450
      6 H3          1.3810   -1.8150    3.9460 hc        1 MOL      0.084450
      7 N1          4.0170    0.2480    4.0740 n         1 MOL     -0.487598
      8 C3          4.8130    1.3720    3.6080 c3        1 MOL      0.077279
      9 C4          5.5320    0.9690    2.2610 c         1 MOL      0.589678
     10 O2          5.4890    1.6800    1.2370 o         1 MOL     -0.527754
     11 C5          5.7780    1.8950    4.6840 c3        1 MOL     -0.017554
     12 C6          6.6210    3.0320    4.1620 c         1 MOL      0.682182
     13 O3          6.1080    4.1590    4.1170 o         1 MOL     -0.715938
     14 O4          7.8090    2.8460    3.7770 o         1 MOL     -0.715938
     15 H4          4.5060   -0.3700    4.7160 hn        1 MOL      0.232823
     16 H5          4.0330    2.0870    3.3340 h1        1 MOL      0.084662
     17 H6          6.5500    1.1860    4.9770 hc        1 MOL     -0.049756
     18 H7          5.2430    2.2110    5.5900 hc        1 MOL     -0.049756
     19 N2          6.1390   -0.1930    2.2350 n         1 MOL     -0.518114
     20 C7          6.7080   -0.7380    1.0220 c3        1 MOL      0.149811
     21 C8          5.6800   -0.7870   -0.0960 c         1 MOL      0.378775
     22 O5          4.5990   -1.3780   -0.0000 o         1 MOL     -0.532775
     23 C9          8.1600   -0.1330    0.7940 c3        1 MOL     -0.579257
     24 H8          6.3590   -0.5830    3.1380 hn        1 MOL      0.308520
     25 H9          6.9110   -1.7640    1.3420 h1        1 MOL      0.061233
     26 H10         8.7320   -0.3560    1.6880 hc        1 MOL      0.165559
     27 H11         8.6760   -0.7050    0.0100 hc        1 MOL      0.165559
     28 H12         8.2200    0.9510    0.7320 hc        1 MOL      0.165559
     29 N3          6.0680   -0.2580   -1.1710 n         1 MOL     -0.024274
     30 C10         5.2610    0.0570   -2.3550 c3        1 MOL     -0.017675
     31 C11         5.1920    1.6160   -2.6730 c         1 MOL      0.582767
     32 O6          5.0780    1.9610   -3.8250 o         1 MOL     -0.547853
     33 C12         5.6380   -0.9340   -3.4770 c3        1 MOL     -0.202257
     34 C13         5.5200   -2.4040   -3.0290 c         1 MOL      0.584099
     35 O7          4.4770   -2.7660   -2.4190 o         1 MOL     -0.644661
     36 O8          6.4760   -3.1270   -3.3000 o         1 MOL     -0.644661
     37 H13         7.0490   -0.0070   -1.1630 hn        1 MOL      0.119519
     38 H14         4.2190   -0.1520   -2.0950 h1        1 MOL      0.020199
     39 H15         6.5850   -0.7230   -3.9550 hc        1 MOL      0.054775
     40 H16         4.8760   -0.8380   -4.2540 hc        1 MOL      0.054775
     41 N4          5.4010    2.4660   -1.6890 n         1 MOL     -0.394448
     42 C14         5.3360    3.9540   -1.7630 c3        1 MOL     -0.128761
     43 C15         4.0240    4.4820   -2.1290 c         1 MOL      0.593929
     44 O9          3.9990    5.6210   -2.5930 o         1 MOL     -0.584278
     45 H17         5.4960    2.0230   -0.7820 hn        1 MOL      0.271332
     46 H18         6.0500    4.1840   -2.5490 h1        1 MOL      0.107059
     47 H19         5.7020    4.5390   -0.9210 h1        1 MOL      0.107059
     48 N5          2.8650    3.7720   -2.0030 n         1 MOL     -0.199724
     49 C16         1.4830    4.1700   -2.3710 c3        1 MOL     -0.196692
     50 C17         0.7970    5.2860   -1.4880 c         1 MOL      0.493489
     51 O10         1.1050    5.3050   -0.2980 o         1 MOL     -0.502035
     52 C18         0.6220    2.8750   -2.3660 c3        1 MOL     -0.254222
     53 C19         1.0960    1.8280   -3.4390 c         1 MOL      0.618621
     54 N6          1.4010    0.5650   -3.1760 n         1 MOL     -0.713127
     55 O11         1.2470    2.2210   -4.5920 o         1 MOL     -0.587993
     56 H20         3.0180    2.9060   -1.5180 hn        1 MOL      0.210681
     57 H21         1.6120    4.5820   -3.3730 h1        1 MOL      0.106581
     58 H22        -0.3990    3.2230   -2.5650 hc        1 MOL      0.135534
     59 H23         0.5320    2.4510   -1.3640 hc        1 MOL      0.135534
     60 H24         1.1940    0.1610   -2.2720 hn        1 MOL      0.330301
     61 H25         1.8350    0.0580   -3.9360 hn        1 MOL      0.330301
     62 N7         -0.1420    6.0150   -2.0770 n         1 MOL     -0.328820
     63 C20        -1.0640    6.9940   -1.4460 c3        1 MOL     -0.181717
     64 C21        -2.4500    6.3200   -1.2710 c         1 MOL      0.634583
     65 O12        -2.8020    5.3520   -1.9420 o         1 MOL     -0.500114
     66 H26        -0.1640    5.8990   -3.0850 hn        1 MOL      0.269696
     67 H27        -1.1900    7.7800   -2.1860 h1        1 MOL      0.112398
     68 H28        -0.6560    7.4730   -0.5620 h1        1 MOL      0.112398
     69 N8         -3.2230    6.9710   -0.3890 n         1 MOL     -0.483794
     70 C22        -4.6550    6.6820   -0.2140 c3        1 MOL     -0.239624
     71 C23        -4.9180    5.1990    0.1840 c         1 MOL      0.385315
     72 O13        -6.0890    4.7930    0.0470 o         1 MOL     -0.573649
     73 C24        -5.4590    7.7010    0.5840 c3        1 MOL      0.479340
     74 C25        -4.8900    7.6650    1.9680 c3        1 MOL     -0.256414
     75 O14        -5.3820    9.0110    0.0640 oh        1 MOL     -0.631491
     76 H29        -2.8040    7.7890    0.0470 hn        1 MOL      0.265962
     77 H30        -5.1740    6.7740   -1.1710 h1        1 MOL      0.139639
     78 H31        -6.5200    7.4360    0.6520 h1        1 MOL      0.045519
     79 H32        -4.4640    9.2600    0.1660 ho        1 MOL      0.381981
     80 H33        -5.4420    8.2870    2.6790 hc        1 MOL      0.049487
     81 H34        -4.7920    6.6240    2.2950 hc        1 MOL      0.049487
     82 H35        -3.8770    8.0320    1.8820 hc        1 MOL      0.049487
     83 N9         -3.9820    4.4410    0.6710 n         1 MOL      0.164092
     84 C26        -3.9080    3.0090    1.0260 c3        1 MOL     -0.387498
     85 C27        -2.6960    2.2570    0.3290 c         1 MOL      0.306539
     86 O15        -1.6080    2.8680    0.1360 o         1 MOL     -0.348503
     87 C28        -3.9170    2.8210    2.5580 c3        1 MOL      0.060217
     88 C29        -2.6290    3.3000    3.3240 c3        1 MOL      0.116573
     89 C30        -5.2120    3.4240    3.1840 c3        1 MOL     -0.552645
     90 C31        -2.4370    2.7940    4.7510 c3        1 MOL     -0.115256
     91 H36        -3.0910    4.9220    0.6190 hn        1 MOL      0.097454
     92 H37        -4.7700    2.4750    0.6320 h1        1 MOL      0.201568
     93 H38        -3.9050    1.7620    2.8100 hc        1 MOL      0.040663
     94 H39        -2.6480    4.3820    3.3110 hc        1 MOL      0.026763
     95 H40        -1.7170    3.1160    2.7620 hc        1 MOL      0.026763
     96 H41        -5.4530    4.4740    3.0100 hc        1 MOL      0.141622
     97 H42        -6.0220    2.9280    2.6500 hc        1 MOL      0.141622
     98 H43        -5.1540    3.2060    4.2470 hc        1 MOL      0.141622
     99 H44        -3.2310    3.1540    5.4060 hc        1 MOL      0.025650
    100 H45        -2.3730    1.7090    4.8120 hc        1 MOL      0.025650
    101 H46        -1.5500    3.2320    5.1970 hc        1 MOL      0.025650
    102 N10        -2.8790    0.9590    0.0610 n         1 MOL     -0.160012
    103 C32        -1.7880    0.2300   -0.6370 c3        1 MOL     -0.101025
    104 C33        -2.2470   -0.9980   -1.4830 c         1 MOL      0.429765
    105 O16        -1.5250   -1.3110   -2.4250 o         1 MOL     -0.512400
    106 C34        -0.7880   -0.2810    0.4200 c3        1 MOL     -0.190679
    107 C35         0.4060   -1.1060   -0.0540 c         1 MOL      0.767769
    108 O17         1.4390   -0.5480   -0.5480 o         1 MOL     -0.713460
    109 O18         0.3190   -2.3310   -0.1400 o         1 MOL     -0.713460
    110 H47        -3.7630    0.5270    0.2620 hn        1 MOL      0.182107
    111 H48        -1.2590    0.9170   -1.2850 h1        1 MOL      0.103107
    112 H49        -1.3000   -1.0140    1.0490 hc        1 MOL      0.048486
    113 H50        -0.4540    0.6220    0.9330 hc        1 MOL      0.048486
    114 N11        -3.3970   -1.6110   -1.1950 n         1 MOL     -0.167181
    115 C36        -4.0700   -2.5670   -2.0190 c3        1 MOL      0.252433
    116 C37        -4.5000   -3.6920   -1.0310 c         1 MOL      0.121312
    117 O19        -4.6270   -3.4270    0.1540 o         1 MOL     -0.392627
    118 C38        -5.2480   -1.8660   -2.8020 c3        1 MOL     -0.438258
    119 C39        -6.1480   -1.0620   -1.9540 ca        1 MOL      0.212517
    120 C40        -7.3620   -1.5710   -1.4370 ca        1 MOL     -0.220465
    121 C41        -5.7260    0.2720   -1.6690 ca        1 MOL     -0.220465
    122 C42        -8.1180   -0.8330   -0.4570 ca        1 MOL     -0.059983
    123 C43        -6.5720    0.9840   -0.7530 ca        1 MOL     -0.059983
    124 C44        -7.6860    0.4180   -0.0810 ca        1 MOL     -0.190609
    125 H51        -3.9430   -1.3500   -0.3970 hn        1 MOL      0.248526
    126 H52        -3.4220   -3.0220   -2.7620 h1        1 MOL      0.029959
    127 H53        -5.8150   -2.6780   -3.2650 hc        1 MOL      0.129400
    128 H54        -4.8890   -1.1190   -3.5210 hc        1 MOL      0.129400
    129 H55        -7.7280   -2.5660   -1.6230 ha        1 MOL      0.133085
    130 H56        -4.8380    0.7600   -2.0180 ha        1 MOL      0.133085
    131 H57        -9.0390   -1.2730   -0.1050 ha        1 MOL      0.102117
    132 H58        -6.2880    1.9750   -0.4350 ha        1 MOL      0.102117
    133 H59        -8.2020    1.0420    0.6390 ha        1 MOL      0.134336
    134 N12        -4.6000   -4.9910   -1.4740 n         1 MOL     -0.058635
    135 C45        -4.7700   -6.1780   -0.5980 c3        1 MOL      0.162550
    136 C46        -4.0310   -6.1960    0.8060 c         1 MOL      0.226006
    137 O20        -4.6800   -6.6640    1.7580 o         1 MOL     -0.508187
    138 C47        -4.2000   -7.3260   -1.4840 c3        1 MOL     -0.116840
    139 C48        -4.5310   -6.9040   -2.8890 c3        1 MOL     -0.032103
    140 C49        -4.1750   -5.4120   -2.7800 c3        1 MOL     -0.164976
    141 H60        -5.8250   -6.4020   -0.4240 h1        1 MOL      0.041512
    142 H61        -3.1240   -7.2420   -1.4020 hc        1 MOL      0.064656
    143 H62        -4.6740   -8.2340   -1.1060 hc        1 MOL      0.064656
    144 H63        -3.9960   -7.4630   -3.6540 hc        1 MOL      0.033931
    145 H64        -5.6070   -6.8510   -3.0440 hc        1 MOL      0.033931
    146 H65        -3.1040   -5.2460   -2.8860 h1        1 MOL      0.103307
    147 H66        -4.6970   -4.8530   -3.5530 h1        1 MOL      0.103307
    148 N13        -2.8970   -5.5420    1.0680 n         1 MOL     -0.093193
    149 C50        -2.1830   -5.5870    2.3880 c3        1 MOL     -0.033337
    150 C51        -2.7110   -4.5390    3.3590 c         1 MOL      0.357389
    151 O21        -2.4740   -4.7310    4.5380 o         1 MOL     -0.524290
    152 C52        -0.7150   -5.2960    2.1930 c3        1 MOL      0.124210
    153 C53        -0.0620   -6.2850    1.2610 c3        1 MOL     -0.420752
    154 C54         1.4100   -6.0440    1.0470 c         1 MOL      0.857573
    155 O22         1.6500   -5.3810    0.0200 o         1 MOL     -0.730520
    156 O23         2.3710   -6.4710    1.7460 o         1 MOL     -0.730520
    157 H67        -2.4610   -5.0500    0.2960 hn        1 MOL      0.237240
    158 H68        -2.3450   -6.5700    2.8140 h1        1 MOL      0.127167
    159 H69        -0.1990   -5.3210    3.1550 hc        1 MOL      0.013525
    160 H70        -0.6340   -4.3170    1.7270 hc        1 MOL      0.013525
    161 H71        -0.6160   -6.3690    0.3290 hc        1 MOL      0.042912
    162 H72        -0.2370   -7.2330    1.7860 hc        1 MOL      0.042912
    163 N14        -3.4800   -3.5040    2.9630 n         1 MOL     -0.091029
    164 C55        -4.3320   -2.7590    3.9710 c3        1 MOL     -0.383883
    165 H73        -5.0970   -2.1870    3.4470 h1        1 MOL      0.144780
    166 H74        -4.8090   -3.4730    4.6430 h1        1 MOL      0.144780
    167 H75        -3.7040   -2.0810    4.5480 h1        1 MOL      0.144780
    168 H76        -3.6690   -3.3340    1.9830 hn        1 MOL      0.109886
    169 Ca1         2.6050   -3.2020   -0.8540 Ca        1 MOL      1.768550
    170 O24         4.7590   -4.5330   -0.3440 oh        1 MOL     -0.893882
    171 H77         5.6460   -4.2910   -0.6110 ho        1 MOL      0.413183
    172 H78         4.8840   -5.2090    0.3110 ho        1 MOL      0.413183
    173 O25         0.9310   -2.6360   -3.0300 oh        1 MOL     -0.893882
    174 H79         1.3310   -2.3840   -3.8580 ho        1 MOL      0.413183
    175 H80         0.0620   -2.2310   -3.0440 ho        1 MOL      0.413183
    176 O26         3.4180   -5.0160   -3.1860 oh        1 MOL     -0.893882
    177 H81         3.6130   -5.2040   -4.1000 ho        1 MOL      0.413183
    178 H82         4.0090   -4.2960   -2.9520 ho        1 MOL      0.413183
    179 O27         3.2840   -3.2240    1.9350 oh        1 MOL     -0.893882
    180 H83         4.1370   -2.8980    2.2240 ho        1 MOL      0.413183
    181 H84         3.0120   -3.8240    2.6280 ho        1 MOL      0.413183
@<TRIPOS>BOND
     1    1    2 1   
     2    1    4 1   
     3    1    5 1   
     4    1    6 1   
     5    2    3 2   
     6    2    7 1   
     7    7    8 1   
     8    7   15 1   
     9    8    9 1   
    10    8   11 1   
    11    8   16 1   
    12    9   10 2   
    13    9   19 1   
    14   11   12 1   
    15   11   17 1   
    16   11   18 1   
    17   12   13 1   
    18   12   14 1   
    19   19   20 1   
    20   19   24 1   
    21   20   21 1   
    22   20   23 1   
    23   20   25 1   
    24   21   22 2   
    25   21   29 1   
    26   23   26 1   
    27   23   27 1   
    28   23   28 1   
    29   29   30 1   
    30   29   37 1   
    31   30   31 1   
    32   30   33 1   
    33   30   38 1   
    34   31   32 2   
    35   31   41 1   
    36   33   34 1   
    37   33   39 1   
    38   33   40 1   
    39   34   35 1   
    40   34   36 1   
    41   41   42 1   
    42   41   45 1   
    43   42   43 1   
    44   42   46 1   
    45   42   47 1   
    46   43   44 2   
    47   43   48 1   
    48   48   49 1   
    49   48   56 1   
    50   49   50 1   
    51   49   52 1   
    52   49   57 1   
    53   50   51 2   
    54   50   62 1   
    55   52   53 1   
    56   52   58 1   
    57   52   59 1   
    58   53   54 1   
    59   53   55 2   
    60   54   60 1   
    61   54   61 1   
    62   62   63 1   
    63   62   66 1   
    64   63   64 1   
    65   63   67 1   
    66   63   68 1   
    67   64   65 2   
    68   64   69 1   
    69   69   70 1   
    70   69   76 1   
    71   70   71 1   
    72   70   73 1   
    73   70   77 1   
    74   71   72 2   
    75   71   83 1   
    76   73   74 1   
    77   73   75 1   
    78   73   78 1   
    79   74   80 1   
    80   74   81 1   
    81   74   82 1   
    82   75   79 1   
    83   83   84 1   
    84   83   91 1   
    85   84   85 1   
    86   84   87 1   
    87   84   92 1   
    88   85   86 2   
    89   85  102 1   
    90   87   88 1   
    91   87   89 1   
    92   87   93 1   
    93   88   90 1   
    94   88   94 1   
    95   88   95 1   
    96   89   96 1   
    97   89   97 1   
    98   89   98 1   
    99   90   99 1   
   100   90  100 1   
   101   90  101 1   
   102  102  103 1   
   103  102  110 1   
   104  103  104 1   
   105  103  106 1   
   106  103  111 1   
   107  104  105 2   
   108  104  114 1   
   109  106  107 1   
   110  106  112 1   
   111  106  113 1   
   112  107  108 1   
   113  107  109 1   
   114  114  115 1   
   115  114  125 1   
   116  115  116 1   
   117  115  118 1   
   118  115  126 1   
   119  116  117 2   
   120  116  134 1   
   121  118  119 1   
   122  118  127 1   
   123  118  128 1   
   124  119  120 ar  
   125  119  121 ar  
   126  120  122 ar  
   127  120  129 1   
   128  121  123 ar  
   129  121  130 1   
   130  122  124 ar  
   131  122  131 1   
   132  123  124 ar  
   133  123  132 1   
   134  124  133 1   
   135  134  135 1   
   136  134  140 1   
   137  135  136 1   
   138  135  138 1   
   139  135  141 1   
   140  136  137 2   
   141  136  148 1   
   142  138  139 1   
   143  138  142 1   
   144  138  143 1   
   145  139  140 1   
   146  139  144 1   
   147  139  145 1   
   148  140  146 1   
   149  140  147 1   
   150  148  149 1   
   151  148  157 1   
   152  149  150 1   
   153  149  152 1   
   154  149  158 1   
   155  150  151 2   
   156  150  163 1   
   157  152  153 1   
   158  152  159 1   
   159  152  160 1   
   160  153  154 1   
   161  153  161 1   
   162  153  162 1   
   163  154  155 1   
   164  154  156 1   
   165  163  164 1   
   166  163  168 1   
   167  164  165 1   
   168  164  166 1   
   169  164  167 1   
   170  170  171 1   
   171  170  172 1   
   172  173  174 1   
   173  173  175 1   
   174  176  177 1   
   175  176  178 1   
   176  179  180 1   
   177  179  181 1   
@<TRIPOS>SUBSTRUCTURE
     1 MOL         1 TEMP              0 ****  ****    0 ROOT
