@<TRIPOS>MOLECULE
MOL
  192   187     1     0     0
SMALL
resp


@<TRIPOS>ATOM
      1 C1         12.3620    5.0200   -2.8650 c3        1 MOL     -0.465592
      2 C2         12.1830    3.6810   -2.0500 c         1 MOL      0.614514
      3 O1         12.9120    2.7200   -2.1950 o         1 MOL     -0.572269
      4 H1         13.0550    5.6760   -2.3380 hc        1 MOL      0.127225
      5 H2         12.7600    4.7940   -3.8540 hc        1 MOL      0.127225
      6 H3         11.3980    5.5170   -2.9650 hc        1 MOL      0.127225
      7 N1         11.2070    3.6500   -1.1550 n         1 MOL     -0.180824
      8 C3         10.9410    2.4660   -0.3450 c3        1 MOL     -0.284411
      9 C4          9.5880    1.8850   -0.7840 c         1 MOL      0.650416
     10 O2          8.6070    2.6340   -0.9860 o         1 MOL     -0.717167
     11 C5         10.9980    2.8270    1.1710 c3        1 MOL     -0.017956
     12 C6         10.2130    4.0150    1.6710 c         1 MOL      0.680636
     13 O3         10.5630    4.5100    2.8110 o         1 MOL     -0.680218
     14 O4          9.2330    4.5160    1.0750 o         1 MOL     -0.680218
     15 H4         10.5880    4.4330   -1.0610 hn        1 MOL      0.092299
     16 H5         11.6620    1.6880   -0.5670 h1        1 MOL      0.140041
     17 H6         12.0380    3.0730    1.4080 hc        1 MOL      0.059548
     18 H7         10.7330    2.0200    1.8470 hc        1 MOL      0.059548
     19 N2          9.4590    0.5270   -0.7600 n         1 MOL     -0.532121
     20 C7          8.1910   -0.1620   -1.0280 c3        1 MOL      0.143252
     21 C8          7.4010   -0.5080    0.2500 c         1 MOL      0.716610
     22 O5          7.9450   -1.0870    1.1650 o         1 MOL     -0.533892
     23 C9          8.4960   -1.5130   -1.8090 c3        1 MOL     -0.194695
     24 C10         7.2460   -2.2110   -2.3200 c3        1 MOL      0.291294
     25 C11         7.5260   -3.4500   -3.2530 c3        1 MOL     -0.306817
     26 C12         6.2360   -4.0930   -3.7800 c3        1 MOL      0.130159
     27 N3          6.3550   -4.6900   -5.1110 n4        1 MOL     -0.250317
     28 H8         10.2660   -0.0280   -0.5200 hn        1 MOL      0.325877
     29 H9          7.5340    0.3990   -1.6870 h1        1 MOL      0.086805
     30 H10         9.0320   -2.2440   -1.2110 hc        1 MOL      0.044710
     31 H11         9.0720   -1.2780   -2.6990 hc        1 MOL      0.044710
     32 H12         6.7200   -1.4680   -2.9270 hc        1 MOL     -0.057997
     33 H13         6.6300   -2.4740   -1.4520 hc        1 MOL     -0.057997
     34 H14         7.8820   -4.2720   -2.6230 hc        1 MOL      0.105748
     35 H15         8.2360   -3.1980   -4.0370 hc        1 MOL      0.105748
     36 H16         5.4540   -3.3440   -3.8980 hx        1 MOL      0.054435
     37 H17         5.9360   -4.8770   -3.0890 hx        1 MOL      0.054435
     38 H18         6.5470   -4.0110   -5.8450 hn        1 MOL      0.254293
     39 H19         7.0990   -5.3700   -5.2090 hn        1 MOL      0.254293
     40 H20         5.5900   -5.2920   -5.3640 hn        1 MOL      0.254293
     41 N4          6.0990   -0.1150    0.1840 n         1 MOL     -0.533182
     42 C13         5.0890   -0.1880    1.2880 c3        1 MOL      0.095474
     43 C14         3.6660    0.1030    0.8070 c         1 MOL      0.445275
     44 O6          3.4690    0.5670   -0.2770 o         1 MOL     -0.467249
     45 C15         5.4650    0.8880    2.3760 c3        1 MOL     -0.471798
     46 C16         5.8100    2.3280    1.9880 c         1 MOL      0.947395
     47 O7          7.0080    2.5930    1.7870 o         1 MOL     -0.777427
     48 O8          4.9740    3.2250    1.8340 o         1 MOL     -0.777427
     49 H21         5.6950    0.1250   -0.7130 hn        1 MOL      0.189785
     50 H22         5.0800   -1.2110    1.6530 h1        1 MOL      0.100112
     51 H23         6.2960    0.4260    2.9010 hc        1 MOL      0.152268
     52 H24         4.6630    0.9330    3.1070 hc        1 MOL      0.152268
     53 N5          2.6220   -0.1840    1.6440 n         1 MOL     -0.403072
     54 C17         2.7140   -1.1330    2.7960 c3        1 MOL      0.000787
     55 C18         3.0620   -2.6170    2.6720 c         1 MOL      0.538235
     56 O9          3.6750   -3.1570    1.6910 o         1 MOL     -0.509389
     57 H25         1.6940    0.0940    1.3500 hn        1 MOL      0.300047
     58 H26         1.7710   -1.0700    3.3390 h1        1 MOL      0.059424
     59 H27         3.2690   -0.6980    3.6340 h1        1 MOL      0.059424
     60 N6          2.6390   -3.4880    3.6090 n         1 MOL     -0.408470
     61 C19         2.8070   -4.9770    3.5560 c3        1 MOL      0.190666
     62 C20         1.6730   -5.6980    2.7860 c         1 MOL      0.319810
     63 O10         1.8860   -6.7670    2.1930 o         1 MOL     -0.512712
     64 C21         3.0580   -5.5610    4.9860 c3        1 MOL     -0.129256
     65 C22         3.7600   -4.5470    5.9170 c         1 MOL      0.655572
     66 O11         3.0440   -4.0200    6.8300 o         1 MOL     -0.648623
     67 O12         4.9040   -4.1310    5.5950 o         1 MOL     -0.648623
     68 H28         1.9310   -3.1610    4.2510 hn        1 MOL      0.253852
     69 H29         3.6830   -5.3100    3.0040 h1        1 MOL      0.081031
     70 H30         3.7500   -6.4110    4.9620 hc        1 MOL      0.010342
     71 H31         2.0920   -5.7540    5.4390 hc        1 MOL      0.010342
     72 N7          0.5500   -5.0450    2.6470 n         1 MOL     -0.137649
     73 C23        -0.4960   -5.4980    1.7300 c3        1 MOL     -0.272890
     74 C24        -0.3180   -4.8700    0.3690 c         1 MOL      0.608168
     75 O13        -1.0240   -5.2740   -0.5860 o         1 MOL     -0.583364
     76 H32         0.3360   -4.2530    3.2460 hn        1 MOL      0.218699
     77 H33        -1.4720   -5.0920    1.9840 h1        1 MOL      0.138786
     78 H34        -0.5430   -6.5940    1.7460 h1        1 MOL      0.138786
     79 N8          0.7440   -4.0060    0.2020 n         1 MOL     -0.241412
     80 C25         1.0290   -3.2520   -1.0440 c3        1 MOL      0.214470
     81 C26         0.3790   -1.8790   -1.0290 c         1 MOL      0.225997
     82 O14         0.3270   -1.2230   -0.0270 o         1 MOL     -0.408647
     83 C27         2.5300   -3.1510   -1.3230 c3        1 MOL      0.225964
     84 C28         3.2810   -4.4250   -1.1990 c3        1 MOL     -0.797660
     85 O15         2.6500   -2.7340   -2.6860 oh        1 MOL     -0.610731
     86 H35         1.3650   -3.7950    0.9620 hn        1 MOL      0.004773
     87 H36         0.6410   -3.7710   -1.9250 h1        1 MOL      0.061666
     88 H37         2.8990   -2.3340   -0.6950 h1        1 MOL      0.082116
     89 H38         3.2330   -1.9700   -2.7260 ho        1 MOL      0.370276
     90 H39         2.9730   -5.0320   -2.0510 hc        1 MOL      0.239670
     91 H40         4.3520   -4.2400   -1.2900 hc        1 MOL      0.239670
     92 H41         3.2130   -4.8470   -0.1920 hc        1 MOL      0.239670
     93 N9         -0.2580   -1.4810   -2.1340 n         1 MOL     -0.279777
     94 C29        -0.8970   -0.1680   -2.2490 c3        1 MOL      0.060526
     95 C30        -2.2460   -0.1510   -1.5240 c         1 MOL      0.409649
     96 O16        -2.6370    0.7660   -0.8660 o         1 MOL     -0.502129
     97 C31        -1.0360    0.2850   -3.7040 c3        1 MOL      0.182797
     98 C32         0.3240    0.3850   -4.4790 c3        1 MOL      0.139448
     99 C33        -1.8180    1.6030   -3.9250 c3        1 MOL     -0.492501
    100 C34         1.3180    1.3150   -3.8240 c3        1 MOL     -0.170929
    101 H42        -0.2940   -2.1030   -2.9330 hn        1 MOL      0.223990
    102 H43        -0.1910    0.4740   -1.7210 h1        1 MOL      0.063826
    103 H44        -1.6290   -0.5170   -4.1590 hc        1 MOL     -0.020951
    104 H45         0.0200    0.6700   -5.4910 hc        1 MOL     -0.046513
    105 H46         0.7650   -0.5990   -4.5990 hc        1 MOL     -0.046513
    106 H47        -1.3180    2.4350   -3.4400 hc        1 MOL      0.144484
    107 H48        -2.0020    1.6390   -5.0020 hc        1 MOL      0.144484
    108 H49        -2.7810    1.5010   -3.4220 hc        1 MOL      0.144484
    109 H50         2.1120    1.5220   -4.5450 hc        1 MOL      0.030475
    110 H51         0.8260    2.2180   -3.4610 hc        1 MOL      0.030475
    111 H52         1.6830    0.8010   -2.9440 hc        1 MOL      0.030475
    112 N10        -2.9350   -1.2720   -1.6420 n         1 MOL     -0.378235
    113 C35        -4.2200   -1.5850   -0.8790 c3        1 MOL      0.019894
    114 C36        -5.4240   -1.8680   -1.8010 c         1 MOL      0.567086
    115 O17        -5.2300   -2.4650   -2.8480 o         1 MOL     -0.537762
    116 C37        -3.9920   -2.7330    0.1670 c3        1 MOL      0.425116
    117 C38        -2.7460   -2.3500    1.0060 c3        1 MOL     -0.542849
    118 O18        -5.1490   -2.9220    0.9650 oh        1 MOL     -0.671918
    119 H53        -2.4800   -1.9880   -2.1940 hn        1 MOL      0.218758
    120 H54        -4.3820   -0.6720   -0.2950 h1        1 MOL      0.068089
    121 H55        -3.7680   -3.6120   -0.4300 h1        1 MOL      0.026007
    122 H56        -4.9540   -2.6670    1.8660 ho        1 MOL      0.417536
    123 H57        -1.8650   -2.5200    0.3990 hc        1 MOL      0.137269
    124 H58        -2.7190   -1.2920    1.2510 hc        1 MOL      0.137269
    125 H59        -2.7930   -3.0280    1.8590 hc        1 MOL      0.137269
    126 N11        -6.6430   -1.4540   -1.4050 n         1 MOL     -0.391717
    127 C39        -7.9190   -1.8090   -2.1740 c3        1 MOL     -0.007603
    128 C40        -8.8170   -0.6720   -2.1600 c         1 MOL      0.517093
    129 O19        -9.0460   -0.0080   -3.1820 o         1 MOL     -0.536463
    130 C41        -8.6340   -3.0650   -1.6540 c3        1 MOL      0.271491
    131 C42       -10.0690   -3.2760   -2.2220 c3        1 MOL     -0.368469
    132 O20        -8.7410   -2.9330   -0.2200 oh        1 MOL     -0.639423
    133 H60        -6.6890   -0.7030   -0.7390 hn        1 MOL      0.220151
    134 H61        -7.6610   -1.9520   -3.2250 h1        1 MOL      0.090408
    135 H62        -8.1120   -3.9890   -1.8910 h1        1 MOL      0.050338
    136 H63        -8.9440   -3.8080    0.1290 ho        1 MOL      0.417246
    137 H64       -10.0640   -3.1390   -3.2970 hc        1 MOL      0.097981
    138 H65       -10.4640   -4.2560   -1.9610 hc        1 MOL      0.097981
    139 H66       -10.7200   -2.5020   -1.8120 hc        1 MOL      0.097981
    140 N12        -9.1600   -0.1370   -0.9400 n         1 MOL     -0.254532
    141 C43       -10.0800    1.0730   -0.7250 c3        1 MOL     -0.198954
    142 C44        -9.7690    1.7760    0.5670 c         1 MOL      0.455027
    143 O21        -9.7140    1.0990    1.5690 o         1 MOL     -0.531953
    144 C45       -11.5060    0.6730   -0.8940 c3        1 MOL     -0.294857
    145 C46       -12.0500   -0.3830    0.1060 c3        1 MOL      0.094744
    146 C47       -13.4340   -1.0190   -0.2690 c3        1 MOL     -0.023327
    147 C48       -14.6370   -0.1010   -0.2060 c3        1 MOL      0.053577
    148 N13       -15.8970   -0.8950   -0.1120 n4        1 MOL     -0.273543
    149 H67        -8.6500   -0.5340   -0.1610 hn        1 MOL      0.282438
    150 H68        -9.7900    1.7880   -1.5010 h1        1 MOL      0.125401
    151 H69       -11.5180    0.1280   -1.8350 hc        1 MOL      0.107864
    152 H70       -12.2190    1.4950   -0.9820 hc        1 MOL      0.107864
    153 H71       -12.1200    0.1050    1.0780 hc        1 MOL      0.044017
    154 H72       -11.3640   -1.2160    0.2500 hc        1 MOL      0.044017
    155 H73       -13.4380   -1.7910    0.5110 hc        1 MOL      0.004387
    156 H74       -13.3840   -1.4550   -1.2630 hc        1 MOL      0.004387
    157 H75       -14.6100    0.5200   -1.1050 hx        1 MOL      0.081223
    158 H76       -14.5740    0.4940    0.7080 hx        1 MOL      0.081223
    159 H77       -15.9970   -1.4270    0.7470 hn        1 MOL      0.254727
    160 H78       -16.6960   -0.2920   -0.1870 hn        1 MOL      0.254727
    161 H79       -15.9020   -1.5120   -0.9150 hn        1 MOL      0.254727
    162 N14        -9.4730    3.0480    0.5430 n         1 MOL     -0.235884
    163 C49        -8.9570    3.8810    1.6060 c3        1 MOL      0.132735
    164 C50        -7.4410    4.0510    1.6690 c         1 MOL      0.419917
    165 O22        -6.9490    4.3020    2.7500 o         1 MOL     -0.517444
    166 C51        -9.6600    5.2680    1.5730 c3        1 MOL      0.102789
    167 C52       -11.2160    5.0680    1.6050 c3        1 MOL     -0.346964
    168 C53       -11.9050    6.4270    1.9580 c         1 MOL      0.767483
    169 O23       -11.4610    7.1470    2.9140 o         1 MOL     -0.665801
    170 O24       -12.8740    6.7920    1.3470 o         1 MOL     -0.665801
    171 H80        -9.6400    3.5030   -0.3460 hn        1 MOL      0.243521
    172 H81        -9.1830    3.3540    2.5370 h1        1 MOL      0.068375
    173 H82        -9.4280    5.9190    0.7240 hc        1 MOL      0.001223
    174 H83        -9.4080    5.8310    2.4660 hc        1 MOL      0.001223
    175 H84       -11.5930    4.4740    2.4300 hc        1 MOL      0.046333
    176 H85       -11.4340    4.6530    0.6140 hc        1 MOL      0.046333
    177 N15        -6.6160    3.8600    0.6160 n         1 MOL     -0.422109
    178 C54        -6.8840    4.0430   -0.8460 c3        1 MOL      0.039722
    179 H86        -7.5740    3.2730   -1.1880 h1        1 MOL      0.028997
    180 H87        -7.3250    5.0250   -1.0140 h1        1 MOL      0.028997
    181 H88        -5.9490    3.9650   -1.4000 h1        1 MOL      0.028997
    182 H89        -5.6470    3.8510    0.9030 hn        1 MOL      0.296563
    183 Ca1         6.9460    4.3570   -0.0510 Ca        1 MOL      1.769763
    184 O25         6.0550    6.0030    1.9580 oh        1 MOL     -0.882962
    185 H90         5.3560    5.4180    2.2650 ho        1 MOL      0.429387
    186 H91         5.6640    6.8720    1.9650 ho        1 MOL      0.429387
    187 O26         4.5830    5.5550   -0.4660 oh        1 MOL     -0.882962
    188 H92         4.2460    6.1790    0.1800 ho        1 MOL      0.429387
    189 H93         3.7890    5.1650   -0.8480 ho        1 MOL      0.429387
    190 O27         5.3440    2.6700   -1.4540 oh        1 MOL     -0.882962
    191 H94         5.5530    2.3260   -2.3240 ho        1 MOL      0.429387
    192 H95         4.4320    2.9330   -1.5200 ho        1 MOL      0.429387
@<TRIPOS>BOND
     1    1    2 1   
     2    1    4 1   
     3    1    5 1   
     4    1    6 1   
     5    2    3 2   
     6    2    7 1   
     7    7    8 1   
     8    7   15 1   
     9    8    9 1   
    10    8   11 1   
    11    8   16 1   
    12    9   10 2   
    13    9   19 1   
    14   11   12 1   
    15   11   17 1   
    16   11   18 1   
    17   12   13 1   
    18   12   14 1   
    19   19   20 1   
    20   19   28 1   
    21   20   21 1   
    22   20   23 1   
    23   20   29 1   
    24   21   22 2   
    25   21   41 1   
    26   23   24 1   
    27   23   30 1   
    28   23   31 1   
    29   24   25 1   
    30   24   32 1   
    31   24   33 1   
    32   25   26 1   
    33   25   34 1   
    34   25   35 1   
    35   26   27 1   
    36   26   36 1   
    37   26   37 1   
    38   27   38 1   
    39   27   39 1   
    40   27   40 1   
    41   41   42 1   
    42   41   49 1   
    43   42   43 1   
    44   42   45 1   
    45   42   50 1   
    46   43   44 2   
    47   43   53 1   
    48   45   46 1   
    49   45   51 1   
    50   45   52 1   
    51   46   47 1   
    52   46   48 1   
    53   53   54 1   
    54   53   57 1   
    55   54   55 1   
    56   54   58 1   
    57   54   59 1   
    58   55   56 2   
    59   55   60 1   
    60   60   61 1   
    61   60   68 1   
    62   61   62 1   
    63   61   64 1   
    64   61   69 1   
    65   62   63 2   
    66   62   72 1   
    67   64   65 1   
    68   64   70 1   
    69   64   71 1   
    70   65   66 1   
    71   65   67 1   
    72   72   73 1   
    73   72   76 1   
    74   73   74 1   
    75   73   77 1   
    76   73   78 1   
    77   74   75 2   
    78   74   79 1   
    79   79   80 1   
    80   79   86 1   
    81   80   81 1   
    82   80   83 1   
    83   80   87 1   
    84   81   82 2   
    85   81   93 1   
    86   83   84 1   
    87   83   85 1   
    88   83   88 1   
    89   84   90 1   
    90   84   91 1   
    91   84   92 1   
    92   85   89 1   
    93   93   94 1   
    94   93  101 1   
    95   94   95 1   
    96   94   97 1   
    97   94  102 1   
    98   95   96 2   
    99   95  112 1   
   100   97   98 1   
   101   97   99 1   
   102   97  103 1   
   103   98  100 1   
   104   98  104 1   
   105   98  105 1   
   106   99  106 1   
   107   99  107 1   
   108   99  108 1   
   109  100  109 1   
   110  100  110 1   
   111  100  111 1   
   112  112  113 1   
   113  112  119 1   
   114  113  114 1   
   115  113  116 1   
   116  113  120 1   
   117  114  115 2   
   118  114  126 1   
   119  116  117 1   
   120  116  118 1   
   121  116  121 1   
   122  117  123 1   
   123  117  124 1   
   124  117  125 1   
   125  118  122 1   
   126  126  127 1   
   127  126  133 1   
   128  127  128 1   
   129  127  130 1   
   130  127  134 1   
   131  128  129 2   
   132  128  140 1   
   133  130  131 1   
   134  130  132 1   
   135  130  135 1   
   136  131  137 1   
   137  131  138 1   
   138  131  139 1   
   139  132  136 1   
   140  140  141 1   
   141  140  149 1   
   142  141  142 1   
   143  141  144 1   
   144  141  150 1   
   145  142  143 2   
   146  142  162 1   
   147  144  145 1   
   148  144  151 1   
   149  144  152 1   
   150  145  146 1   
   151  145  153 1   
   152  145  154 1   
   153  146  147 1   
   154  146  155 1   
   155  146  156 1   
   156  147  148 1   
   157  147  157 1   
   158  147  158 1   
   159  148  159 1   
   160  148  160 1   
   161  148  161 1   
   162  162  163 1   
   163  162  171 1   
   164  163  164 1   
   165  163  166 1   
   166  163  172 1   
   167  164  165 2   
   168  164  177 1   
   169  166  167 1   
   170  166  173 1   
   171  166  174 1   
   172  167  168 1   
   173  167  175 1   
   174  167  176 1   
   175  168  169 1   
   176  168  170 1   
   177  177  178 1   
   178  177  182 1   
   179  178  179 1   
   180  178  180 1   
   181  178  181 1   
   182  184  185 1   
   183  184  186 1   
   184  187  188 1   
   185  187  189 1   
   186  190  191 1   
   187  190  192 1   
@<TRIPOS>SUBSTRUCTURE
     1 MOL         1 TEMP              0 ****  ****    0 ROOT
