@<TRIPOS>MOLECULE
MOL
  192   187     1     0     0
SMALL
resp


@<TRIPOS>ATOM
      1 C1          3.4220   -2.3100   -2.6780 c3        1 MOL     -0.437968
      2 C2          2.4040   -2.8780   -1.7220 c         1 MOL      0.660521
      3 O1          1.3130   -2.3900   -1.5420 o         1 MOL     -0.527606
      4 H1          3.9490   -1.4850   -2.1990 hc        1 MOL      0.095921
      5 H2          4.1360   -3.0870   -2.9520 hc        1 MOL      0.095921
      6 H3          2.9170   -1.9480   -3.5740 hc        1 MOL      0.095921
      7 N1          2.8620   -3.9720   -1.1280 n         1 MOL     -0.309924
      8 C3          2.0560   -4.7730   -0.1400 c3        1 MOL     -0.011913
      9 C4          0.5590   -4.8840   -0.3530 c         1 MOL      0.671330
     10 O2         -0.2440   -4.8730    0.6300 o         1 MOL     -0.534683
     11 C5          2.4290   -4.4350    1.3530 c3        1 MOL     -0.412227
     12 C6          3.9090   -4.3330    1.5810 c         1 MOL      0.993786
     13 O3          4.6160   -5.2800    1.2440 o         1 MOL     -0.794109
     14 O4          4.3800   -3.3790    2.2530 o         1 MOL     -0.794109
     15 H4          3.8490   -4.1640   -1.2290 hn        1 MOL      0.139030
     16 H5          2.5030   -5.7530   -0.2750 h1        1 MOL      0.092154
     17 H6          1.9870   -5.0800    2.1170 hc        1 MOL      0.120281
     18 H7          1.9850   -3.4900    1.6680 hc        1 MOL      0.120281
     19 N2          0.1350   -5.0630   -1.6160 n         1 MOL     -0.610671
     20 C7         -1.3080   -5.0020   -2.0000 c3        1 MOL      0.051658
     21 C8         -1.9900   -6.3460   -1.6970 c         1 MOL      0.458665
     22 O5         -1.3430   -7.3590   -1.5020 o         1 MOL     -0.553573
     23 C9         -1.5620   -4.5470   -3.5240 c3        1 MOL      0.349698
     24 C10        -0.7980   -5.5500   -4.4380 c3        1 MOL      0.075409
     25 C11        -1.1970   -3.0920   -3.8470 c3        1 MOL     -0.084520
     26 C12        -1.6370   -5.8290   -5.6490 c3        1 MOL     -0.129726
     27 H8          0.8040   -5.0200   -2.3660 hn        1 MOL      0.209426
     28 H9         -1.7360   -4.2580   -1.3300 h1        1 MOL      0.072579
     29 H10        -2.6360   -4.5590   -3.6450 hc        1 MOL     -0.068971
     30 H11        -0.6870   -6.5430   -4.0010 hc        1 MOL     -0.020804
     31 H12         0.1190   -5.0300   -4.7200 hc        1 MOL     -0.020804
     32 H13        -1.7490   -2.4610   -3.1640 hc        1 MOL      0.000939
     33 H14        -0.1210   -2.9650   -3.7420 hc        1 MOL      0.000939
     34 H15        -1.4580   -2.8830   -4.8800 hc        1 MOL      0.000939
     35 H16        -1.6030   -4.9360   -6.2850 hc        1 MOL      0.005183
     36 H17        -1.1510   -6.5920   -6.2580 hc        1 MOL      0.005183
     37 H18        -2.6360   -6.0700   -5.3020 hc        1 MOL      0.005183
     38 N3         -3.3450   -6.4710   -1.6410 n         1 MOL     -0.353548
     39 C13        -4.3890   -5.4870   -1.9220 c3        1 MOL      0.034006
     40 C14        -4.3160   -4.1850   -1.0850 c         1 MOL      0.347428
     41 O6         -4.7700   -3.1110   -1.4910 o         1 MOL     -0.551561
     42 C15        -5.8520   -6.0990   -1.7650 c3        1 MOL     -0.398824
     43 C16        -6.1380   -7.0410   -0.5010 c         1 MOL      0.731267
     44 O7         -5.1660   -7.5520    0.1600 o         1 MOL     -0.699763
     45 O8         -7.3560   -7.3130   -0.4070 o         1 MOL     -0.699763
     46 H19        -3.6540   -7.4170   -1.4610 hn        1 MOL      0.274864
     47 H20        -4.4280   -5.1490   -2.9540 h1        1 MOL      0.053569
     48 H21        -6.0220   -6.7690   -2.6100 hc        1 MOL      0.107626
     49 H22        -6.5110   -5.2410   -1.6770 hc        1 MOL      0.107626
     50 N4         -3.7830   -4.2840    0.1260 n         1 MOL      0.068615
     51 C17        -3.7370   -3.2370    1.1180 c3        1 MOL     -0.476669
     52 C18        -4.9990   -2.8530    1.7480 c         1 MOL      0.854802
     53 O9         -5.9940   -3.5630    1.6590 o         1 MOL     -0.576188
     54 H23        -3.6980   -5.2610    0.3910 hn        1 MOL      0.179523
     55 H24        -3.4330   -2.3170    0.6210 h1        1 MOL      0.129440
     56 H25        -3.0760   -3.5590    1.9230 h1        1 MOL      0.129440
     57 N5         -5.0490   -1.6770    2.3400 n         1 MOL     -0.619608
     58 C19        -6.1400   -0.9610    3.1020 c3        1 MOL      0.051949
     59 C20        -7.1010   -0.0950    2.2150 c         1 MOL      0.402125
     60 O10        -8.1620    0.3090    2.7210 o         1 MOL     -0.556548
     61 C21        -5.5610   -0.0970    4.1650 c3        1 MOL     -0.157144
     62 C22        -4.8790   -0.9100    5.3000 c         1 MOL      0.677842
     63 O11        -5.6070   -1.8590    5.7790 o         1 MOL     -0.684274
     64 O12        -3.7870   -0.5140    5.8220 o         1 MOL     -0.684274
     65 H26        -4.2660   -1.1420    1.9850 hn        1 MOL      0.296707
     66 H27        -6.7900   -1.6890    3.5860 h1        1 MOL      0.133904
     67 H28        -6.2910    0.5770    4.6060 hc        1 MOL      0.013605
     68 H29        -4.8520    0.5620    3.6560 hc        1 MOL      0.013605
     69 N6         -6.8840    0.0470    0.9390 n         1 MOL     -0.115966
     70 C23        -7.7950    0.6960   -0.0870 c3        1 MOL     -0.418092
     71 C24        -7.7610    2.2010   -0.2430 c         1 MOL      0.574337
     72 O13        -8.3560    2.7220   -1.1850 o         1 MOL     -0.579944
     73 H30        -5.9860   -0.3090    0.6640 hn        1 MOL      0.192732
     74 H31        -8.8200    0.3590    0.0410 h1        1 MOL      0.183279
     75 H32        -7.4340    0.2310   -0.9950 h1        1 MOL      0.183279
     76 N7         -6.8890    2.7620    0.4970 n         1 MOL     -0.102466
     77 C25        -6.5560    4.1330    0.6600 c3        1 MOL     -0.044924
     78 C26        -5.9250    4.8090   -0.6000 c         1 MOL      0.514387
     79 O14        -6.2120    5.9380   -0.8670 o         1 MOL     -0.483223
     80 C27        -7.7190    4.9160    1.2850 c3        1 MOL     -0.102339
     81 C28        -8.1090    4.1470    2.5410 c3        1 MOL      0.037994
     82 C29        -9.1350    4.8730    3.4410 c         1 MOL      0.559024
     83 N8         -9.6960    4.2600    4.3960 n         1 MOL     -0.710827
     84 O15        -9.3440    6.0920    3.2780 o         1 MOL     -0.594260
     85 H33        -6.3550    2.1260    1.0740 hn        1 MOL      0.147487
     86 H34        -5.7580    4.1700    1.4050 h1        1 MOL      0.089956
     87 H35        -8.5830    5.0460    0.6380 hc        1 MOL      0.054172
     88 H36        -7.3670    5.9090    1.5760 hc        1 MOL      0.054172
     89 H37        -7.1880    3.8440    3.0520 hc        1 MOL      0.010521
     90 H38        -8.5800    3.2250    2.1960 hc        1 MOL      0.010521
     91 H39        -9.5850    3.2640    4.5220 hn        1 MOL      0.350845
     92 H40       -10.2150    4.9110    4.9650 hn        1 MOL      0.350845
     93 N9         -5.0320    4.1190   -1.4110 n         1 MOL     -0.412325
     94 C30        -4.3200    4.5260   -2.6240 c3        1 MOL     -0.232885
     95 C31        -2.7410    4.2280   -2.6790 c         1 MOL      0.679472
     96 O16        -2.0590    4.8580   -3.4780 o         1 MOL     -0.560482
     97 C32        -4.9560    3.8570   -3.8130 c3        1 MOL      0.380554
     98 C33        -4.9130    2.3000   -3.7930 c3        1 MOL     -0.459715
     99 C34        -6.4240    4.3220   -4.0780 c3        1 MOL     -0.459715
    100 H41        -4.8740    3.1890   -1.0360 hn        1 MOL      0.159756
    101 H42        -4.2920    5.6190   -2.6620 h1        1 MOL      0.146263
    102 H43        -4.3490    4.1390   -4.6730 hc        1 MOL     -0.047842
    103 H44        -3.8430    2.1250   -3.7400 hc        1 MOL      0.122469
    104 H45        -5.4240    1.8880   -2.9190 hc        1 MOL      0.122469
    105 H46        -5.4730    1.8590   -4.6150 hc        1 MOL      0.122469
    106 H47        -6.4170    5.4160   -4.0270 hc        1 MOL      0.122469
    107 H48        -6.7510    3.9490   -5.0380 hc        1 MOL      0.122469
    108 H49        -7.0190    3.9380   -3.2490 hc        1 MOL      0.122469
    109 N10        -2.2920    3.2820   -1.8430 n         1 MOL     -0.534798
    110 C35        -0.9350    2.8580   -1.6810 c3        1 MOL      0.304890
    111 C36        -0.3090    3.3800   -0.3880 c         1 MOL      0.458593
    112 O17        -0.8960    3.8640    0.5530 o         1 MOL     -0.539845
    113 C37        -0.8250    1.3350   -1.6920 c3        1 MOL     -0.298361
    114 C38        -1.1450    0.7720   -3.0440 c         1 MOL      0.702992
    115 N11        -0.4420    1.0080   -4.1080 n         1 MOL     -0.794301
    116 O18        -2.1440    0.1590   -3.2700 o         1 MOL     -0.584267
    117 H50        -2.9390    2.8960   -1.1770 hn        1 MOL      0.299643
    118 H51        -0.3420    3.2550   -2.5110 h1        1 MOL     -0.024626
    119 H52        -1.5130    0.9240   -0.9510 hc        1 MOL      0.097398
    120 H53         0.1920    0.9660   -1.5380 hc        1 MOL      0.097398
    121 H54         0.4750    1.3990   -3.9060 hn        1 MOL      0.371015
    122 H55        -0.8030    0.7340   -5.0110 hn        1 MOL      0.371015
    123 N12         1.0130    3.3300   -0.3600 n         1 MOL     -0.233782
    124 C39         1.9900    4.0390    0.4910 c3        1 MOL      0.012053
    125 C40         3.4050    4.2610   -0.1530 c         1 MOL      0.370045
    126 O19         3.8010    3.5260   -1.0750 o         1 MOL     -0.468427
    127 C41         1.9840    3.4390    1.9110 c3        1 MOL     -0.114507
    128 C42         2.8600    2.2040    2.0480 ca        1 MOL     -0.110241
    129 C43         2.5070    0.9080    1.5900 ca        1 MOL     -0.022190
    130 C44         4.0910    2.3440    2.7050 ca        1 MOL     -0.022190
    131 C45         3.3420   -0.1350    1.7950 ca        1 MOL     -0.295031
    132 C46         4.9280    1.2400    2.9590 ca        1 MOL     -0.295031
    133 C47         4.5930    0.0320    2.3820 ca        1 MOL      0.354429
    134 O20         5.2750   -1.0430    2.6900 oh        1 MOL     -0.552681
    135 H56         1.4590    2.8300   -1.1180 hn        1 MOL      0.159740
    136 H57         1.4940    5.0030    0.5460 h1        1 MOL      0.075173
    137 H58         0.9760    3.2250    2.2470 hc        1 MOL      0.076896
    138 H59         2.3350    4.1960    2.6070 hc        1 MOL      0.076896
    139 H60         1.5470    0.8770    1.1020 ha        1 MOL      0.082175
    140 H61         4.2970    3.2910    3.1940 ha        1 MOL      0.082175
    141 H62         3.0140   -1.1240    1.4870 ha        1 MOL      0.136749
    142 H63         5.8400    1.3040    3.5390 ha        1 MOL      0.136749
    143 H64         4.7440   -1.8090    2.4540 ho        1 MOL      0.468128
    144 N13         4.2340    5.1810    0.4680 n         1 MOL     -0.376019
    145 C48         5.6860    5.2750    0.2260 c3        1 MOL      0.234932
    146 C49         6.5670    4.5060    1.1930 c         1 MOL      0.434574
    147 O21         7.1060    5.0430    2.1740 o         1 MOL     -0.568889
    148 C50         6.0170    6.7850    0.3190 c3        1 MOL     -0.214573
    149 C51         5.3330    7.6630   -0.7210 c3        1 MOL     -0.102306
    150 C52         5.8430    9.0350   -0.7570 c         1 MOL      0.783645
    151 O22         5.3650    9.8210    0.1160 o         1 MOL     -0.740398
    152 O23         6.6250    9.3710   -1.5940 o         1 MOL     -0.740398
    153 H65         3.8540    5.7450    1.2120 hn        1 MOL      0.305894
    154 H66         5.9980    5.0870   -0.8000 h1        1 MOL      0.058032
    155 H67         7.0990    6.8340    0.1630 hc        1 MOL      0.068824
    156 H68         5.8330    7.2850    1.2730 hc        1 MOL      0.068824
    157 H69         4.2510    7.6290   -0.5570 hc        1 MOL     -0.018471
    158 H70         5.3300    7.2200   -1.7200 hc        1 MOL     -0.018471
    159 N14         6.8030    3.2070    1.0900 n         1 MOL     -0.282609
    160 C53         6.5020    2.3800   -0.0760 c3        1 MOL     -0.208290
    161 C54         7.1050    2.9170   -1.3730 c         1 MOL      0.497400
    162 O24         8.2630    3.3970   -1.3450 o         1 MOL     -0.550589
    163 C55         7.1060    0.9860    0.1800 c3        1 MOL      0.009606
    164 C56         6.3200   -0.1200   -0.5300 c3        1 MOL      0.342080
    165 C57         6.8340   -1.5210   -0.1990 c         1 MOL      0.437925
    166 O25         5.9780   -2.4470   -0.1790 o         1 MOL     -0.714338
    167 O26         7.9750   -1.7680    0.3130 o         1 MOL     -0.714338
    168 H71         7.3280    2.8010    1.8570 hn        1 MOL      0.262799
    169 H72         5.4260    2.2380   -0.1890 h1        1 MOL      0.102784
    170 H73         7.0090    0.7290    1.2340 hc        1 MOL      0.010592
    171 H74         8.1420    1.0410   -0.1420 hc        1 MOL      0.010592
    172 H75         6.4340    0.1250   -1.5870 hc        1 MOL     -0.093717
    173 H76         5.2910   -0.0070   -0.2010 hc        1 MOL     -0.093717
    174 N15         6.3100    2.9710   -2.4320 n         1 MOL     -0.183798
    175 C58         6.5670    3.4060   -3.8700 c3        1 MOL     -0.127940
    176 H77         7.5090    3.9520   -3.9210 h1        1 MOL      0.075592
    177 H78         6.6220    2.5270   -4.5120 h1        1 MOL      0.075592
    178 H79         5.7550    4.0520   -4.2060 h1        1 MOL      0.075592
    179 H80         5.3600    2.6830   -2.2660 hn        1 MOL      0.190698
    180 Ca1         6.9310   -4.2630    1.4380 Ca        1 MOL      1.738692
    181 O27         9.1540   -4.7140   -0.0190 oh        1 MOL     -0.854866
    182 H81         8.8180   -4.9430   -0.8820 ho        1 MOL      0.411407
    183 H82         9.9350   -4.1870   -0.1960 ho        1 MOL      0.411407
    184 O28         7.3050   -6.8550    1.6810 oh        1 MOL     -0.854866
    185 H83         6.6770   -7.5520    1.8540 ho        1 MOL      0.411407
    186 H84         8.1520   -7.2500    1.8800 ho        1 MOL      0.411407
    187 O29         6.3280   -4.7900    4.0420 oh        1 MOL     -0.854866
    188 H85         6.9460   -4.4780    4.7110 ho        1 MOL      0.411407
    189 H86         5.9050   -5.5400    4.4410 ho        1 MOL      0.411407
    190 O30         9.3590   -3.9690    2.9460 oh        1 MOL     -0.854866
    191 H87        10.1090   -4.5630    2.9980 ho        1 MOL      0.411407
    192 H88         9.7180   -3.1110    3.1600 ho        1 MOL      0.411407
@<TRIPOS>BOND
     1    1    2 1   
     2    1    4 1   
     3    1    5 1   
     4    1    6 1   
     5    2    3 2   
     6    2    7 1   
     7    7    8 1   
     8    7   15 1   
     9    8    9 1   
    10    8   11 1   
    11    8   16 1   
    12    9   10 2   
    13    9   19 1   
    14   11   12 1   
    15   11   17 1   
    16   11   18 1   
    17   12   13 1   
    18   12   14 1   
    19   19   20 1   
    20   19   27 1   
    21   20   21 1   
    22   20   23 1   
    23   20   28 1   
    24   21   22 2   
    25   21   38 1   
    26   23   24 1   
    27   23   25 1   
    28   23   29 1   
    29   24   26 1   
    30   24   30 1   
    31   24   31 1   
    32   25   32 1   
    33   25   33 1   
    34   25   34 1   
    35   26   35 1   
    36   26   36 1   
    37   26   37 1   
    38   38   39 1   
    39   38   46 1   
    40   39   40 1   
    41   39   42 1   
    42   39   47 1   
    43   40   41 2   
    44   40   50 1   
    45   42   43 1   
    46   42   48 1   
    47   42   49 1   
    48   43   44 1   
    49   43   45 1   
    50   50   51 1   
    51   50   54 1   
    52   51   52 1   
    53   51   55 1   
    54   51   56 1   
    55   52   53 2   
    56   52   57 1   
    57   57   58 1   
    58   57   65 1   
    59   58   59 1   
    60   58   61 1   
    61   58   66 1   
    62   59   60 2   
    63   59   69 1   
    64   61   62 1   
    65   61   67 1   
    66   61   68 1   
    67   62   63 1   
    68   62   64 1   
    69   69   70 1   
    70   69   73 1   
    71   70   71 1   
    72   70   74 1   
    73   70   75 1   
    74   71   72 2   
    75   71   76 1   
    76   76   77 1   
    77   76   85 1   
    78   77   78 1   
    79   77   80 1   
    80   77   86 1   
    81   78   79 2   
    82   78   93 1   
    83   80   81 1   
    84   80   87 1   
    85   80   88 1   
    86   81   82 1   
    87   81   89 1   
    88   81   90 1   
    89   82   83 1   
    90   82   84 2   
    91   83   91 1   
    92   83   92 1   
    93   93   94 1   
    94   93  100 1   
    95   94   95 1   
    96   94   97 1   
    97   94  101 1   
    98   95   96 2   
    99   95  109 1   
   100   97   98 1   
   101   97   99 1   
   102   97  102 1   
   103   98  103 1   
   104   98  104 1   
   105   98  105 1   
   106   99  106 1   
   107   99  107 1   
   108   99  108 1   
   109  109  110 1   
   110  109  117 1   
   111  110  111 1   
   112  110  113 1   
   113  110  118 1   
   114  111  112 2   
   115  111  123 1   
   116  113  114 1   
   117  113  119 1   
   118  113  120 1   
   119  114  115 1   
   120  114  116 2   
   121  115  121 1   
   122  115  122 1   
   123  123  124 1   
   124  123  135 1   
   125  124  125 1   
   126  124  127 1   
   127  124  136 1   
   128  125  126 2   
   129  125  144 1   
   130  127  128 1   
   131  127  137 1   
   132  127  138 1   
   133  128  129 ar  
   134  128  130 ar  
   135  129  131 ar  
   136  129  139 1   
   137  130  132 ar  
   138  130  140 1   
   139  131  133 ar  
   140  131  141 1   
   141  132  133 ar  
   142  132  142 1   
   143  133  134 1   
   144  134  143 1   
   145  144  145 1   
   146  144  153 1   
   147  145  146 1   
   148  145  148 1   
   149  145  154 1   
   150  146  147 2   
   151  146  159 1   
   152  148  149 1   
   153  148  155 1   
   154  148  156 1   
   155  149  150 1   
   156  149  157 1   
   157  149  158 1   
   158  150  151 1   
   159  150  152 1   
   160  159  160 1   
   161  159  168 1   
   162  160  161 1   
   163  160  163 1   
   164  160  169 1   
   165  161  162 2   
   166  161  174 1   
   167  163  164 1   
   168  163  170 1   
   169  163  171 1   
   170  164  165 1   
   171  164  172 1   
   172  164  173 1   
   173  165  166 1   
   174  165  167 1   
   175  174  175 1   
   176  174  179 1   
   177  175  176 1   
   178  175  177 1   
   179  175  178 1   
   180  181  182 1   
   181  181  183 1   
   182  184  185 1   
   183  184  186 1   
   184  187  188 1   
   185  187  189 1   
   186  190  191 1   
   187  190  192 1   
@<TRIPOS>SUBSTRUCTURE
     1 MOL         1 TEMP              0 ****  ****    0 ROOT
