@<TRIPOS>MOLECULE
MOL
  192   187     1     0     0
SMALL
resp


@<TRIPOS>ATOM
      1 C1         10.5760    0.5090    0.9310 c3        1 MOL     -0.431397
      2 C2          9.1880   -0.0370    0.3980 c         1 MOL      0.743724
      3 O1          8.2530    0.0520    1.1470 o         1 MOL     -0.588110
      4 H1         10.3990    1.2450    1.7150 hc        1 MOL      0.109385
      5 H2         11.1610   -0.3180    1.3350 hc        1 MOL      0.109385
      6 H3         11.1230    0.9740    0.1120 hc        1 MOL      0.109385
      7 N1          9.0940   -0.3050   -0.8830 n         1 MOL     -0.826302
      8 C3          7.7810   -0.4980   -1.5360 c3        1 MOL      0.463599
      9 C4          7.2090   -1.8890   -1.4950 c         1 MOL      0.261798
     10 O2          7.1670   -2.6030   -2.5260 o         1 MOL     -0.488897
     11 C5          7.5510    0.0620   -2.9740 c3        1 MOL     -0.087482
     12 C6          8.0230    1.5030   -3.0020 c         1 MOL      0.663480
     13 O3          8.2550    1.9390   -4.1460 o         1 MOL     -0.625934
     14 O4          8.0020    2.2500   -1.9860 o         1 MOL     -0.625934
     15 H4          9.9520   -0.3790   -1.4240 hn        1 MOL      0.387882
     16 H5          7.0470    0.0200   -0.9100 h1        1 MOL     -0.006321
     17 H6          6.5000    0.0310   -3.2470 hc        1 MOL      0.023170
     18 H7          8.2610   -0.4740   -3.5990 hc        1 MOL      0.023170
     19 N2          6.7370   -2.2420   -0.2970 n         1 MOL     -0.178416
     20 C7          6.2140   -3.5610    0.0100 c3        1 MOL      0.015197
     21 C8          4.7780   -3.8180   -0.3500 c         1 MOL      0.663466
     22 O5          4.4370   -4.8440   -0.9520 o         1 MOL     -0.598232
     23 C9          6.4220   -3.9420    1.5540 c3        1 MOL     -0.068013
     24 C10         7.8850   -4.1490    1.9620 c3        1 MOL     -0.041684
     25 C11         7.9350   -4.9540    3.3310 c3        1 MOL      0.104868
     26 C12         9.3910   -5.1680    3.6650 c3        1 MOL     -0.011126
     27 N3          9.4630   -5.4730    5.1190 n4        1 MOL     -0.240535
     28 H8          6.9110   -1.5850    0.4500 hn        1 MOL      0.175852
     29 H9          6.6800   -4.2540   -0.6960 h1        1 MOL      0.063554
     30 H10         5.9570   -4.9090    1.7270 hc        1 MOL      0.034841
     31 H11         5.9460   -3.2680    2.2580 hc        1 MOL      0.034841
     32 H12         8.4000   -3.1930    2.0830 hc        1 MOL      0.014902
     33 H13         8.3890   -4.7730    1.2170 hc        1 MOL      0.014902
     34 H14         7.3640   -5.8680    3.1500 hc        1 MOL      0.004070
     35 H15         7.4250   -4.5430    4.2060 hc        1 MOL      0.004070
     36 H16         9.9830   -4.2970    3.3790 hx        1 MOL      0.081320
     37 H17         9.7910   -6.0300    3.1180 hx        1 MOL      0.081320
     38 H18        10.3810   -5.8100    5.3640 hn        1 MOL      0.246715
     39 H19         9.2450   -4.6260    5.6380 hn        1 MOL      0.246715
     40 H20         8.8310   -6.2330    5.3390 hn        1 MOL      0.246715
     41 N4          3.7730   -3.0510    0.0350 n         1 MOL     -0.593453
     42 C13         3.6650   -1.7810    0.8230 c3        1 MOL      0.104743
     43 C14         3.8000   -0.5040   -0.0920 c         1 MOL      0.028296
     44 O6          3.7250   -0.6230   -1.3360 o         1 MOL     -0.251592
     45 C15         2.3030   -1.7710    1.5520 c3        1 MOL     -0.157886
     46 C16         1.0950   -2.2120    0.7330 c         1 MOL      0.349747
     47 O7          0.8660   -1.6110   -0.3550 o         1 MOL     -0.503475
     48 O8          0.2260   -2.9190    1.3360 o         1 MOL     -0.503475
     49 H21         2.8630   -3.3830   -0.2440 hn        1 MOL      0.404014
     50 H22         4.4200   -1.8170    1.6060 h1        1 MOL      0.061611
     51 H23         2.0130   -0.7520    1.7840 hc        1 MOL      0.065800
     52 H24         2.4190   -2.2560    2.5290 hc        1 MOL      0.065800
     53 N5          4.0890    0.6710    0.5550 n         1 MOL     -0.165330
     54 C17         4.2730    1.9150   -0.1810 c3        1 MOL     -0.190405
     55 C18         3.0070    2.4590   -0.8670 c         1 MOL      0.549882
     56 O9          2.0230    1.8230   -0.8080 o         1 MOL     -0.433576
     57 H25         4.2800    0.6290    1.5490 hn        1 MOL      0.257292
     58 H26         5.0330    1.7800   -0.9440 h1        1 MOL      0.105404
     59 H27         4.7030    2.6870    0.4540 h1        1 MOL      0.105404
     60 N6          3.0540    3.5680   -1.5460 n         1 MOL     -0.407832
     61 C19         2.0190    4.4670   -2.0850 c3        1 MOL      0.381635
     62 C20         2.3500    5.9750   -1.9820 c         1 MOL      0.313940
     63 O10         3.5640    6.2780   -1.8880 o         1 MOL     -0.494999
     64 C21         1.6380    4.1660   -3.5370 c3        1 MOL     -0.267524
     65 C22         1.2650    2.6830   -3.6950 c         1 MOL      0.632547
     66 O11         1.8790    2.0400   -4.5420 o         1 MOL     -0.644712
     67 O12         0.3380    2.1130   -3.0690 o         1 MOL     -0.644712
     68 H28         3.9570    4.0040   -1.6700 hn        1 MOL      0.255376
     69 H29         1.1270    4.1960   -1.5230 h1        1 MOL     -0.072306
     70 H30         2.5370    4.3540   -4.1200 hc        1 MOL      0.074150
     71 H31         0.8330    4.8100   -3.8980 hc        1 MOL      0.074150
     72 N7          1.3770    6.8960   -1.9370 n         1 MOL     -0.365726
     73 C23        -0.0830    6.7690   -1.9120 c3        1 MOL     -0.037030
     74 C24        -0.6220    6.1300   -0.5940 c         1 MOL      0.540537
     75 O13         0.0240    6.1280    0.4850 o         1 MOL     -0.503829
     76 H32         1.7790    7.8170   -1.8550 hn        1 MOL      0.297029
     77 H33        -0.3570    6.1560   -2.7700 h1        1 MOL      0.073691
     78 H34        -0.6340    7.6770   -2.1360 h1        1 MOL      0.073691
     79 N8         -1.7700    5.4710   -0.6660 n         1 MOL     -0.564081
     80 C25        -2.3990    4.7540    0.4840 c3        1 MOL      0.081667
     81 C26        -1.4870    3.5560    0.8780 c         1 MOL      0.585628
     82 O14        -0.7490    2.9470    0.0910 o         1 MOL     -0.548465
     83 C27        -3.7490    4.2960    0.1450 c3        1 MOL      0.063044
     84 C28        -4.4210    3.5400    1.3680 c3        1 MOL     -0.330533
     85 O15        -3.6660    3.5050   -1.0610 oh        1 MOL     -0.555355
     86 H35        -2.2830    5.4310   -1.5400 hn        1 MOL      0.329708
     87 H36        -2.4660    5.4570    1.3130 h1        1 MOL      0.108409
     88 H37        -4.2990    5.2210   -0.0460 h1        1 MOL      0.082708
     89 H38        -4.5540    3.3500   -1.3850 ho        1 MOL      0.423854
     90 H39        -5.4190    3.1710    1.1520 hc        1 MOL      0.108135
     91 H40        -3.9660    2.5560    1.5140 hc        1 MOL      0.108135
     92 H41        -4.5240    4.1300    2.2780 hc        1 MOL      0.108135
     93 N9         -1.3820    3.3770    2.2260 n         1 MOL     -0.524555
     94 C29        -0.5950    2.3850    2.9430 c3        1 MOL      0.363833
     95 C30        -1.0760    1.0120    2.5020 c         1 MOL      0.060893
     96 O16        -0.6750    0.5070    1.4530 o         1 MOL     -0.447887
     97 C31         0.9530    2.5780    2.8390 c3        1 MOL      0.125754
     98 C32         1.2820    4.0600    3.2420 c3        1 MOL      0.091349
     99 C33         1.7770    1.5920    3.6430 c3        1 MOL     -0.327928
    100 C34         1.1860    4.4470    4.7100 c3        1 MOL     -0.234165
    101 H42        -1.9440    3.9390    2.8490 hn        1 MOL      0.252585
    102 H43        -0.8190    2.4590    4.0020 h1        1 MOL     -0.002211
    103 H44         1.1890    2.4940    1.7730 hc        1 MOL     -0.030021
    104 H45         0.6830    4.7700    2.6850 hc        1 MOL      0.004637
    105 H46         2.3170    4.2360    2.9430 hc        1 MOL      0.004637
    106 H47         1.3720    0.6150    3.3790 hc        1 MOL      0.082986
    107 H48         2.8470    1.6480    3.4300 hc        1 MOL      0.082986
    108 H49         1.5930    1.7450    4.7080 hc        1 MOL      0.082986
    109 H50         0.2040    4.2700    5.1480 hc        1 MOL      0.045884
    110 H51         1.9400    3.8080    5.1510 hc        1 MOL      0.045884
    111 H52         1.4660    5.4880    4.8770 hc        1 MOL      0.045884
    112 N10        -2.0360    0.4630    3.2140 n         1 MOL     -0.098927
    113 C35        -2.4330   -0.9370    3.0630 c3        1 MOL     -0.092741
    114 C36        -3.9170   -1.1200    3.2780 c         1 MOL      0.500035
    115 O17        -4.3460   -2.2570    3.4540 o         1 MOL     -0.567823
    116 C37        -1.6380   -1.8070    3.9880 c3        1 MOL      0.433249
    117 C38        -1.6980   -1.1660    5.4340 c3        1 MOL     -0.282144
    118 O18        -0.3000   -1.7510    3.5690 oh        1 MOL     -0.522883
    119 H53        -2.3870    0.9190    4.0470 hn        1 MOL      0.179764
    120 H54        -2.3580   -1.2220    2.0120 h1        1 MOL      0.133404
    121 H55        -2.0430   -2.8160    4.0360 h1        1 MOL      0.016104
    122 H56        -0.2250   -2.1970    2.7220 ho        1 MOL      0.213253
    123 H57        -1.3310   -1.9330    6.1140 hc        1 MOL      0.054300
    124 H58        -1.0840   -0.2630    5.4600 hc        1 MOL      0.054300
    125 H59        -2.7570   -0.9950    5.6220 hc        1 MOL      0.054300
    126 N11        -4.6710   -0.0630    3.0260 n         1 MOL     -0.186351
    127 C39        -6.1440    0.0070    3.0750 c3        1 MOL     -0.017067
    128 C40        -6.6860   -0.3210    1.7230 c         1 MOL      0.593535
    129 O19        -6.9840    0.5260    0.9650 o         1 MOL     -0.490036
    130 C41        -6.6380    1.3750    3.4500 c3        1 MOL      0.408099
    131 C42        -8.1220    1.4620    3.4700 c3        1 MOL     -0.407543
    132 O20        -6.1170    1.7530    4.7350 oh        1 MOL     -0.688153
    133 H60        -4.1930    0.7830    2.7710 hn        1 MOL      0.140355
    134 H61        -6.4890   -0.7290    3.8000 h1        1 MOL      0.053664
    135 H62        -6.2280    2.0210    2.6710 h1        1 MOL     -0.031837
    136 H63        -6.8160    2.2480    5.1680 ho        1 MOL      0.419435
    137 H64        -8.5200    0.5430    3.9030 hc        1 MOL      0.102424
    138 H65        -8.4460    2.2840    4.1080 hc        1 MOL      0.102424
    139 H66        -8.4560    1.5630    2.4430 hc        1 MOL      0.102424
    140 N12        -6.5540   -1.6460    1.3940 n         1 MOL     -0.793806
    141 C43        -6.5510   -2.2980    0.0850 c3        1 MOL      0.448896
    142 C44        -5.2780   -1.9420   -0.7630 c         1 MOL      0.323566
    143 O21        -4.6490   -0.9160   -0.5370 o         1 MOL     -0.406213
    144 C45        -7.7200   -1.9620   -0.8420 c3        1 MOL     -0.346518
    145 C46        -9.0850   -2.2030   -0.1560 c3        1 MOL     -0.020505
    146 C47       -10.2040   -1.9480   -1.1470 c3        1 MOL     -0.034019
    147 C48       -11.6250   -1.9130   -0.4860 c3        1 MOL      0.054860
    148 N13       -12.6860   -1.5020   -1.4730 n4        1 MOL     -0.219347
    149 H67        -6.2170   -2.1730    2.1800 hn        1 MOL      0.360406
    150 H68        -6.5670   -3.3710    0.2500 h1        1 MOL      0.013821
    151 H69        -7.7330   -2.5790   -1.7370 hc        1 MOL      0.106949
    152 H70        -7.6620   -0.9240   -1.1590 hc        1 MOL      0.106949
    153 H71        -9.3150   -1.4950    0.6450 hc        1 MOL      0.047218
    154 H72        -9.1300   -3.2600    0.1250 hc        1 MOL      0.047218
    155 H73       -10.1830   -2.5890   -2.0340 hc        1 MOL      0.050376
    156 H74        -9.9870   -0.9510   -1.5190 hc        1 MOL      0.050376
    157 H75       -11.7140   -1.2500    0.3640 hx        1 MOL      0.058973
    158 H76       -11.8820   -2.9050   -0.1070 hx        1 MOL      0.058973
    159 H77       -12.4120   -0.6470   -1.9500 hn        1 MOL      0.204901
    160 H78       -12.9530   -2.2860   -2.0430 hn        1 MOL      0.204901
    161 H79       -13.5620   -1.2330   -1.0600 hn        1 MOL      0.204901
    162 N14        -4.8480   -2.8910   -1.6490 n         1 MOL     -0.420951
    163 C49        -3.6020   -2.7550   -2.4810 c3        1 MOL      0.161964
    164 C50        -2.2950   -2.6740   -1.6950 c         1 MOL      0.428592
    165 O22        -1.6050   -1.7030   -1.7450 o         1 MOL     -0.588974
    166 C51        -3.6190   -3.8910   -3.5460 c3        1 MOL      0.041354
    167 C52        -4.7060   -3.6640   -4.5870 c3        1 MOL     -0.260363
    168 C53        -4.7570   -4.8890   -5.5750 c         1 MOL      0.692451
    169 O23        -4.7550   -6.1300   -5.2190 o         1 MOL     -0.624281
    170 O24        -4.9360   -4.7210   -6.8010 o         1 MOL     -0.624281
    171 H80        -5.4100   -3.6750   -1.9550 hn        1 MOL      0.293310
    172 H81        -3.7120   -1.7990   -2.9920 h1        1 MOL      0.056080
    173 H82        -3.8030   -4.8030   -2.9720 hc        1 MOL      0.012740
    174 H83        -2.6530   -3.9780   -4.0410 hc        1 MOL      0.012740
    175 H84        -4.6680   -2.6540   -4.9970 hc        1 MOL      0.030131
    176 H85        -5.6600   -3.6000   -4.0500 hc        1 MOL      0.030131
    177 N15        -1.9930   -3.4870   -0.7350 n         1 MOL     -0.218056
    178 C54        -2.6050   -4.7070   -0.2700 c3        1 MOL     -0.042328
    179 H86        -2.1640   -5.5560   -0.7910 h1        1 MOL      0.029927
    180 H87        -2.4380   -4.8120    0.8020 h1        1 MOL      0.029927
    181 H88        -3.6760   -4.6750   -0.4690 h1        1 MOL      0.029927
    182 H89        -1.0890   -3.2840   -0.3550 hn        1 MOL      0.274940
    183 Ca1        -0.4190    0.5290   -1.1420 Ca        1 MOL      1.774312
    184 O25        -2.8590    1.0130   -0.1830 oh        1 MOL     -0.914761
    185 H90        -3.5640    0.4020   -0.4070 ho        1 MOL      0.419203
    186 H91        -3.2260    1.8800   -0.3610 ho        1 MOL      0.419203
    187 O26         0.9160   -0.4070   -3.3470 oh        1 MOL     -0.914761
    188 H92         0.8080    0.4020   -3.8640 ho        1 MOL      0.419203
    189 H93         1.1740   -1.0650   -3.9880 ho        1 MOL      0.419203
    190 O27        -2.3110    0.8780   -3.1810 oh        1 MOL     -0.914761
    191 H94        -3.2360    0.7520   -3.3660 ho        1 MOL      0.419203
    192 H95        -1.9020    0.9640   -4.0480 ho        1 MOL      0.419203
@<TRIPOS>BOND
     1    1    2 1   
     2    1    4 1   
     3    1    5 1   
     4    1    6 1   
     5    2    3 2   
     6    2    7 1   
     7    7    8 1   
     8    7   15 1   
     9    8    9 1   
    10    8   11 1   
    11    8   16 1   
    12    9   10 2   
    13    9   19 1   
    14   11   12 1   
    15   11   17 1   
    16   11   18 1   
    17   12   13 1   
    18   12   14 1   
    19   19   20 1   
    20   19   28 1   
    21   20   21 1   
    22   20   23 1   
    23   20   29 1   
    24   21   22 2   
    25   21   41 1   
    26   23   24 1   
    27   23   30 1   
    28   23   31 1   
    29   24   25 1   
    30   24   32 1   
    31   24   33 1   
    32   25   26 1   
    33   25   34 1   
    34   25   35 1   
    35   26   27 1   
    36   26   36 1   
    37   26   37 1   
    38   27   38 1   
    39   27   39 1   
    40   27   40 1   
    41   41   42 1   
    42   41   49 1   
    43   42   43 1   
    44   42   45 1   
    45   42   50 1   
    46   43   44 2   
    47   43   53 1   
    48   45   46 1   
    49   45   51 1   
    50   45   52 1   
    51   46   47 1   
    52   46   48 1   
    53   53   54 1   
    54   53   57 1   
    55   54   55 1   
    56   54   58 1   
    57   54   59 1   
    58   55   56 2   
    59   55   60 1   
    60   60   61 1   
    61   60   68 1   
    62   61   62 1   
    63   61   64 1   
    64   61   69 1   
    65   62   63 2   
    66   62   72 1   
    67   64   65 1   
    68   64   70 1   
    69   64   71 1   
    70   65   66 1   
    71   65   67 1   
    72   72   73 1   
    73   72   76 1   
    74   73   74 1   
    75   73   77 1   
    76   73   78 1   
    77   74   75 2   
    78   74   79 1   
    79   79   80 1   
    80   79   86 1   
    81   80   81 1   
    82   80   83 1   
    83   80   87 1   
    84   81   82 2   
    85   81   93 1   
    86   83   84 1   
    87   83   85 1   
    88   83   88 1   
    89   84   90 1   
    90   84   91 1   
    91   84   92 1   
    92   85   89 1   
    93   93   94 1   
    94   93  101 1   
    95   94   95 1   
    96   94   97 1   
    97   94  102 1   
    98   95   96 2   
    99   95  112 1   
   100   97   98 1   
   101   97   99 1   
   102   97  103 1   
   103   98  100 1   
   104   98  104 1   
   105   98  105 1   
   106   99  106 1   
   107   99  107 1   
   108   99  108 1   
   109  100  109 1   
   110  100  110 1   
   111  100  111 1   
   112  112  113 1   
   113  112  119 1   
   114  113  114 1   
   115  113  116 1   
   116  113  120 1   
   117  114  115 2   
   118  114  126 1   
   119  116  117 1   
   120  116  118 1   
   121  116  121 1   
   122  117  123 1   
   123  117  124 1   
   124  117  125 1   
   125  118  122 1   
   126  126  127 1   
   127  126  133 1   
   128  127  128 1   
   129  127  130 1   
   130  127  134 1   
   131  128  129 2   
   132  128  140 1   
   133  130  131 1   
   134  130  132 1   
   135  130  135 1   
   136  131  137 1   
   137  131  138 1   
   138  131  139 1   
   139  132  136 1   
   140  140  141 1   
   141  140  149 1   
   142  141  142 1   
   143  141  144 1   
   144  141  150 1   
   145  142  143 2   
   146  142  162 1   
   147  144  145 1   
   148  144  151 1   
   149  144  152 1   
   150  145  146 1   
   151  145  153 1   
   152  145  154 1   
   153  146  147 1   
   154  146  155 1   
   155  146  156 1   
   156  147  148 1   
   157  147  157 1   
   158  147  158 1   
   159  148  159 1   
   160  148  160 1   
   161  148  161 1   
   162  162  163 1   
   163  162  171 1   
   164  163  164 1   
   165  163  166 1   
   166  163  172 1   
   167  164  165 2   
   168  164  177 1   
   169  166  167 1   
   170  166  173 1   
   171  166  174 1   
   172  167  168 1   
   173  167  175 1   
   174  167  176 1   
   175  168  169 1   
   176  168  170 1   
   177  177  178 1   
   178  177  182 1   
   179  178  179 1   
   180  178  180 1   
   181  178  181 1   
   182  184  185 1   
   183  184  186 1   
   184  187  188 1   
   185  187  189 1   
   186  190  191 1   
   187  190  192 1   
@<TRIPOS>SUBSTRUCTURE
     1 MOL         1 TEMP              0 ****  ****    0 ROOT
