@<TRIPOS>MOLECULE
MOL
  178   175     1     0     0
SMALL
resp


@<TRIPOS>ATOM
      1 C1          2.2510   -2.2040    4.3670 c3        1 MOL     -0.336578
      2 C2          3.3550   -1.3780    3.6530 c         1 MOL      0.610003
      3 O1          3.3660   -1.2430    2.4110 o         1 MOL     -0.540621
      4 H1          1.9430   -3.0290    3.7250 hc        1 MOL      0.087351
      5 H2          2.6400   -2.5990    5.3050 hc        1 MOL      0.087351
      6 H3          1.3910   -1.5640    4.5710 hc        1 MOL      0.087351
      7 N1          4.3870   -0.8200    4.2830 n         1 MOL     -0.461663
      8 C3          5.6210   -0.2770    3.6720 c3        1 MOL      0.137967
      9 C4          6.4520   -1.1240    2.6910 c         1 MOL      0.573136
     10 O2          6.8370   -0.5680    1.7080 o         1 MOL     -0.424500
     11 C5          6.4430    0.3240    4.8390 c3        1 MOL     -0.208482
     12 C6          7.6490    1.1780    4.3690 c         1 MOL      0.737360
     13 O3          7.5130    2.1770    3.6420 o         1 MOL     -0.725611
     14 O4          8.7510    0.7620    4.6850 o         1 MOL     -0.725611
     15 H4          4.2910   -1.0240    5.2720 hn        1 MOL      0.242165
     16 H5          5.2310    0.5690    3.0970 h1        1 MOL      0.061085
     17 H6          6.6720   -0.5550    5.4350 hc        1 MOL     -0.017448
     18 H7          5.7820    1.0270    5.3370 hc        1 MOL     -0.017448
     19 N2          6.6230   -2.3930    3.0020 n         1 MOL     -0.457773
     20 C7          7.2120   -3.4480    2.1470 c3        1 MOL      0.404206
     21 C8          6.7640   -3.5270    0.7100 c         1 MOL      0.311642
     22 O5          7.5800   -3.7490   -0.1990 o         1 MOL     -0.497662
     23 C9          8.7000   -3.4470    2.4260 c3        1 MOL     -0.431409
     24 H8          6.2420   -2.6390    3.9020 hn        1 MOL      0.234149
     25 H9          6.9650   -4.4170    2.5710 h1        1 MOL     -0.009579
     26 H10         9.0640   -4.3690    1.9640 hc        1 MOL      0.102018
     27 H11         9.1600   -2.5210    2.1040 hc        1 MOL      0.102018
     28 H12         8.7870   -3.5580    3.5070 hc        1 MOL      0.102018
     29 N3          5.4790   -3.1470    0.4350 n         1 MOL     -0.311264
     30 C10         4.7430   -2.9820   -0.8930 c3        1 MOL      0.341055
     31 C11         5.1590   -1.7580   -1.6990 c         1 MOL      0.302400
     32 O6          5.1110   -1.7760   -2.9340 o         1 MOL     -0.539909
     33 C12         4.8480   -4.2900   -1.5210 c3        1 MOL     -0.205029
     34 C13         3.7370   -4.5600   -2.4870 c         1 MOL      0.750835
     35 O7          2.7640   -3.7650   -2.5150 o         1 MOL     -0.725605
     36 O8          3.8000   -5.5500   -3.2130 o         1 MOL     -0.725605
     37 H13         4.9380   -2.9830    1.2740 hn        1 MOL      0.109891
     38 H14         3.6930   -2.8900   -0.6280 h1        1 MOL      0.063863
     39 H15         4.7790   -5.0020   -0.6860 hc        1 MOL      0.024523
     40 H16         5.8680   -4.3620   -1.8860 hc        1 MOL      0.024523
     41 N4          5.7800   -0.7550   -1.1000 n         1 MOL      0.108671
     42 C14         6.3980    0.3400   -1.8060 c3        1 MOL     -0.005151
     43 C15         5.4330    1.4510   -2.3950 c         1 MOL      0.555175
     44 O9          5.9400    2.4450   -2.8220 o         1 MOL     -0.557377
     45 H17         5.9910   -0.8970   -0.1210 hn        1 MOL     -0.046031
     46 H18         7.0410    0.0280   -2.6330 h1        1 MOL      0.032473
     47 H19         7.0630    0.8880   -1.1300 h1        1 MOL      0.032473
     48 N5          4.1260    1.2850   -2.2130 n         1 MOL     -0.333067
     49 C16         3.1560    2.2530   -2.6230 c3        1 MOL      0.000814
     50 C17         3.1790    3.5250   -1.8260 c         1 MOL      0.517119
     51 O10         3.5930    3.5610   -0.6880 o         1 MOL     -0.475241
     52 C18         1.8000    1.6610   -2.6810 c3        1 MOL     -0.479148
     53 C19         1.8270    0.5290   -3.7130 c         1 MOL      0.780548
     54 N6          2.0690    0.7500   -5.0090 n         1 MOL     -0.794637
     55 O11         1.6200   -0.6060   -3.2720 o         1 MOL     -0.632346
     56 H20         3.8210    0.4720   -1.7000 hn        1 MOL      0.173187
     57 H21         3.3610    2.5220   -3.6520 h1        1 MOL      0.029413
     58 H22         1.0200    2.3800   -2.9310 hc        1 MOL      0.243717
     59 H23         1.5710    1.2850   -1.6820 hc        1 MOL      0.243717
     60 H24         2.1810    1.6910   -5.3730 hn        1 MOL      0.343124
     61 H25         2.0340   -0.0050   -5.6770 hn        1 MOL      0.343124
     62 N7          2.7780    4.6000   -2.4900 n         1 MOL     -0.410750
     63 C20         2.6010    5.9460   -1.8890 c3        1 MOL     -0.039799
     64 C21         1.1300    6.4570   -1.9580 c         1 MOL      0.472391
     65 O12         0.3870    6.0620   -2.8870 o         1 MOL     -0.517840
     66 H26         2.6010    4.4500   -3.4680 hn        1 MOL      0.264392
     67 H27         3.2620    6.6200   -2.4310 h1        1 MOL      0.087710
     68 H28         2.9070    5.9410   -0.8410 h1        1 MOL      0.087710
     69 N8          0.7340    7.3190   -1.0550 n         1 MOL     -0.515056
     70 C22        -0.7240    7.7030   -0.9250 c3        1 MOL     -0.057127
     71 C23        -1.5310    6.5360   -0.4170 c         1 MOL      0.563479
     72 O13        -2.7510    6.5280   -0.5500 o         1 MOL     -0.556044
     73 C24        -0.7660    8.9330   -0.0070 c3        1 MOL      0.388336
     74 C25        -2.0470    9.6910    0.0080 c3        1 MOL     -0.526750
     75 O14        -0.3500    8.5220    1.2280 oh        1 MOL     -0.583057
     76 H29         1.4570    7.5600   -0.3860 hn        1 MOL      0.286628
     77 H30        -1.0640    7.9410   -1.9310 h1        1 MOL      0.124662
     78 H31         0.0070    9.6040   -0.4010 h1        1 MOL     -0.004677
     79 H32        -0.0880    9.2840    1.7430 ho        1 MOL      0.395478
     80 H33        -2.4040   10.0780   -0.9430 hc        1 MOL      0.134589
     81 H34        -2.9520    9.1090    0.2270 hc        1 MOL      0.134589
     82 H35        -1.9070   10.5810    0.6310 hc        1 MOL      0.134589
     83 N9         -0.8890    5.5050    0.2070 n         1 MOL     -0.232518
     84 C26        -1.6710    4.3890    0.8110 c3        1 MOL     -0.116131
     85 C27        -1.5970    3.0960   -0.0420 c         1 MOL      0.583776
     86 O15        -0.6670    2.9250   -0.8550 o         1 MOL     -0.521762
     87 C28        -1.3340    4.1990    2.3260 c3        1 MOL      0.263622
     88 C29         0.0380    3.5130    2.5420 c3        1 MOL      0.201798
     89 C30        -1.5170    5.5190    3.1010 c3        1 MOL     -0.616649
     90 C31         1.2580    4.3950    2.0510 c3        1 MOL     -0.081895
     91 H36         0.1150    5.5770    0.3310 hn        1 MOL      0.205833
     92 H37        -2.7190    4.7070    0.8880 h1        1 MOL      0.055857
     93 H38        -2.0270    3.4810    2.7670 hc        1 MOL     -0.057815
     94 H39        -0.0330    2.5050    2.1270 hc        1 MOL     -0.055782
     95 H40         0.1490    3.3860    3.6150 hc        1 MOL     -0.055782
     96 H41        -1.3820    5.3590    4.1630 hc        1 MOL      0.147995
     97 H42        -0.9040    6.2870    2.6370 hc        1 MOL      0.147995
     98 H43        -2.5440    5.8290    2.9200 hc        1 MOL      0.147995
     99 H44         2.2260    3.9320    2.2390 hc        1 MOL      0.028208
    100 H45         1.1160    4.3780    0.9640 hc        1 MOL      0.028208
    101 H46         1.2180    5.4200    2.4150 hc        1 MOL      0.028208
    102 N10        -2.4430    2.1230    0.2600 n         1 MOL     -0.573988
    103 C32        -2.4000    0.8380   -0.4080 c3        1 MOL      0.020661
    104 C33        -3.7330    0.0680   -0.2030 c         1 MOL      0.519653
    105 O16        -3.7280   -1.1840   -0.4220 o         1 MOL     -0.488895
    106 C34        -1.1900    0.0450    0.1360 c3        1 MOL     -0.011317
    107 C35        -0.6130   -0.9400   -0.8750 c         1 MOL      0.429943
    108 O17         0.3420   -1.6950   -0.5700 o         1 MOL     -0.676043
    109 O18        -1.1070   -0.9940   -2.0460 o         1 MOL     -0.676043
    110 H47        -3.1370    2.2670    0.9880 hn        1 MOL      0.305571
    111 H48        -2.3110    1.0190   -1.4790 h1        1 MOL      0.101294
    112 H49        -1.5790   -0.4770    1.0060 hc        1 MOL      0.048734
    113 H50        -0.3930    0.7460    0.3370 hc        1 MOL      0.048734
    114 N11        -4.8110    0.8230    0.2390 n         1 MOL     -0.492350
    115 C36        -6.1840    0.2090    0.2110 c3        1 MOL      0.090710
    116 C37        -6.3380   -1.1070    1.0180 c         1 MOL      0.446484
    117 O19        -6.0960   -1.0560    2.1940 o         1 MOL     -0.518371
    118 C38        -7.2480    1.2920    0.5640 c3        1 MOL     -0.126491
    119 C39        -8.6910    0.7730    0.2000 ca        1 MOL      0.038557
    120 C40        -9.4000    1.0800   -0.9760 ca        1 MOL     -0.165531
    121 C41        -9.3520   -0.0410    1.1410 ca        1 MOL     -0.165531
    122 C42       -10.6360    0.5000   -1.1950 ca        1 MOL     -0.096012
    123 C43       -10.5960   -0.5990    0.8980 ca        1 MOL     -0.096012
    124 C44       -11.2000   -0.3830   -0.2950 ca        1 MOL     -0.104238
    125 H51        -4.5770    1.7300    0.6350 hn        1 MOL      0.270578
    126 H52        -6.3180   -0.0280   -0.8500 h1        1 MOL      0.064657
    127 H53        -7.0750    2.1760   -0.0440 hc        1 MOL      0.080760
    128 H54        -7.2040    1.6110    1.6160 hc        1 MOL      0.080760
    129 H55        -8.9240    1.6530   -1.7570 ha        1 MOL      0.124997
    130 H56        -8.9640   -0.1620    2.1450 ha        1 MOL      0.124997
    131 H57       -10.9830    0.6470   -2.2130 ha        1 MOL      0.100593
    132 H58       -11.1180   -1.1650    1.6630 ha        1 MOL      0.100593
    133 H59       -12.0970   -0.9170   -0.5650 ha        1 MOL      0.094370
    134 N12        -6.7680   -2.2630    0.4010 n         1 MOL     -0.059730
    135 C45        -6.8990   -3.4850    1.1640 c3        1 MOL      0.244506
    136 C46        -5.7370   -3.8150    2.0070 c         1 MOL      0.096147
    137 O20        -5.9230   -4.3140    3.1750 o         1 MOL     -0.504230
    138 C47        -7.2340   -4.5480    0.1150 c3        1 MOL     -0.057305
    139 C48        -7.4250   -3.8040   -1.2240 c3        1 MOL      0.029381
    140 C49        -7.5010   -2.3600   -0.8120 c3        1 MOL     -0.107384
    141 H60        -7.7930   -3.3350    1.7650 h1        1 MOL      0.014620
    142 H61        -6.3820   -5.2190   -0.0360 hc        1 MOL      0.011526
    143 H62        -8.1870   -5.0120    0.3640 hc        1 MOL      0.011526
    144 H63        -6.6180   -3.9790   -1.9400 hc        1 MOL      0.009761
    145 H64        -8.3260   -4.1160   -1.7400 hc        1 MOL      0.009761
    146 H65        -7.1660   -1.7460   -1.6410 h1        1 MOL      0.052531
    147 H66        -8.5530   -2.1010   -0.7290 h1        1 MOL      0.052531
    148 N13        -4.4830   -3.5260    1.5830 n         1 MOL      0.203420
    149 C50        -3.2360   -3.7940    2.2880 c3        1 MOL     -0.217093
    150 C51        -3.0040   -2.9890    3.5390 c         1 MOL      0.378590
    151 O21        -2.4870   -3.4240    4.5460 o         1 MOL     -0.516030
    152 C52        -2.0450   -3.7060    1.3140 c3        1 MOL     -0.032527
    153 C53        -1.9140   -4.9430    0.4470 c3        1 MOL     -0.172587
    154 C54        -1.0670   -4.5740   -0.7910 c         1 MOL      0.806319
    155 O22         0.1830   -4.5980   -0.7140 o         1 MOL     -0.772289
    156 O23        -1.6180   -4.3790   -1.9120 o         1 MOL     -0.772289
    157 H67        -4.5330   -2.9760    0.7320 hn        1 MOL      0.030695
    158 H68        -3.3090   -4.8280    2.6070 h1        1 MOL      0.108685
    159 H69        -1.1570   -3.6690    1.9490 hc        1 MOL      0.116397
    160 H70        -2.1720   -2.7650    0.7820 hc        1 MOL      0.116397
    161 H71        -2.9160   -5.2920    0.1790 hc        1 MOL      0.011047
    162 H72        -1.5190   -5.7780    1.0290 hc        1 MOL      0.011047
    163 N14        -3.4820   -1.7530    3.3970 n         1 MOL     -0.083445
    164 C55        -3.4340   -0.7320    4.4380 c3        1 MOL     -0.276321
    165 H73        -2.9490    0.1630    4.0470 h1        1 MOL      0.095958
    166 H74        -4.4480   -0.4870    4.7540 h1        1 MOL      0.095958
    167 H75        -2.8680   -1.1080    5.2910 h1        1 MOL      0.095958
    168 H76        -4.0070   -1.5030    2.5790 hn        1 MOL      0.210870
    169 Ca1         0.4750   -2.9640   -2.9310 Ca        1 MOL      1.702097
    170 O24        -1.2390   -1.8660   -4.7460 oh        1 MOL     -0.800776
    171 H77        -1.8190   -2.3310   -5.3510 ho        1 MOL      0.395954
    172 H78        -1.6410   -1.0110   -4.6310 ho        1 MOL      0.395954
    173 O25        -0.2360   -5.0130   -4.5570 oh        1 MOL     -0.800776
    174 H79        -0.5630   -5.0360   -5.4570 ho        1 MOL      0.395954
    175 H80        -0.2010   -5.9330   -4.2930 ho        1 MOL      0.395954
    176 O26         1.7570   -2.8310   -5.6020 oh        1 MOL     -0.800776
    177 H81         2.6910   -3.0660   -5.5780 ho        1 MOL      0.395954
    178 H82         1.7060   -2.1240   -6.2450 ho        1 MOL      0.395954
@<TRIPOS>BOND
     1    1    2 1   
     2    1    4 1   
     3    1    5 1   
     4    1    6 1   
     5    2    3 2   
     6    2    7 1   
     7    7    8 1   
     8    7   15 1   
     9    8    9 1   
    10    8   11 1   
    11    8   16 1   
    12    9   10 2   
    13    9   19 1   
    14   11   12 1   
    15   11   17 1   
    16   11   18 1   
    17   12   13 1   
    18   12   14 1   
    19   19   20 1   
    20   19   24 1   
    21   20   21 1   
    22   20   23 1   
    23   20   25 1   
    24   21   22 2   
    25   21   29 1   
    26   23   26 1   
    27   23   27 1   
    28   23   28 1   
    29   29   30 1   
    30   29   37 1   
    31   30   31 1   
    32   30   33 1   
    33   30   38 1   
    34   31   32 2   
    35   31   41 1   
    36   33   34 1   
    37   33   39 1   
    38   33   40 1   
    39   34   35 1   
    40   34   36 1   
    41   41   42 1   
    42   41   45 1   
    43   42   43 1   
    44   42   46 1   
    45   42   47 1   
    46   43   44 2   
    47   43   48 1   
    48   48   49 1   
    49   48   56 1   
    50   49   50 1   
    51   49   52 1   
    52   49   57 1   
    53   50   51 2   
    54   50   62 1   
    55   52   53 1   
    56   52   58 1   
    57   52   59 1   
    58   53   54 1   
    59   53   55 2   
    60   54   60 1   
    61   54   61 1   
    62   62   63 1   
    63   62   66 1   
    64   63   64 1   
    65   63   67 1   
    66   63   68 1   
    67   64   65 2   
    68   64   69 1   
    69   69   70 1   
    70   69   76 1   
    71   70   71 1   
    72   70   73 1   
    73   70   77 1   
    74   71   72 2   
    75   71   83 1   
    76   73   74 1   
    77   73   75 1   
    78   73   78 1   
    79   74   80 1   
    80   74   81 1   
    81   74   82 1   
    82   75   79 1   
    83   83   84 1   
    84   83   91 1   
    85   84   85 1   
    86   84   87 1   
    87   84   92 1   
    88   85   86 2   
    89   85  102 1   
    90   87   88 1   
    91   87   89 1   
    92   87   93 1   
    93   88   90 1   
    94   88   94 1   
    95   88   95 1   
    96   89   96 1   
    97   89   97 1   
    98   89   98 1   
    99   90   99 1   
   100   90  100 1   
   101   90  101 1   
   102  102  103 1   
   103  102  110 1   
   104  103  104 1   
   105  103  106 1   
   106  103  111 1   
   107  104  105 2   
   108  104  114 1   
   109  106  107 1   
   110  106  112 1   
   111  106  113 1   
   112  107  108 1   
   113  107  109 1   
   114  114  115 1   
   115  114  125 1   
   116  115  116 1   
   117  115  118 1   
   118  115  126 1   
   119  116  117 2   
   120  116  134 1   
   121  118  119 1   
   122  118  127 1   
   123  118  128 1   
   124  119  120 ar  
   125  119  121 ar  
   126  120  122 ar  
   127  120  129 1   
   128  121  123 ar  
   129  121  130 1   
   130  122  124 ar  
   131  122  131 1   
   132  123  124 ar  
   133  123  132 1   
   134  124  133 1   
   135  134  135 1   
   136  134  140 1   
   137  135  136 1   
   138  135  138 1   
   139  135  141 1   
   140  136  137 2   
   141  136  148 1   
   142  138  139 1   
   143  138  142 1   
   144  138  143 1   
   145  139  140 1   
   146  139  144 1   
   147  139  145 1   
   148  140  146 1   
   149  140  147 1   
   150  148  149 1   
   151  148  157 1   
   152  149  150 1   
   153  149  152 1   
   154  149  158 1   
   155  150  151 2   
   156  150  163 1   
   157  152  153 1   
   158  152  159 1   
   159  152  160 1   
   160  153  154 1   
   161  153  161 1   
   162  153  162 1   
   163  154  155 1   
   164  154  156 1   
   165  163  164 1   
   166  163  168 1   
   167  164  165 1   
   168  164  166 1   
   169  164  167 1   
   170  170  171 1   
   171  170  172 1   
   172  173  174 1   
   173  173  175 1   
   174  176  177 1   
   175  176  178 1   
@<TRIPOS>SUBSTRUCTURE
     1 MOL         1 TEMP              0 ****  ****    0 ROOT
