@<TRIPOS>MOLECULE
MOL
  192   187     1     0     0
SMALL
resp


@<TRIPOS>ATOM
      1 C1          4.3450    5.1910   -1.9450 c3        1 MOL     -0.279307
      2 C2          5.1560    4.0750   -1.2380 c         1 MOL      0.753051
      3 O1          4.6010    3.4670   -0.3140 o         1 MOL     -0.566834
      4 H1          4.1180    5.9830   -1.2310 hc        1 MOL      0.071180
      5 H2          4.9320    5.6010   -2.7670 hc        1 MOL      0.071180
      6 H3          3.4160    4.7750   -2.3330 hc        1 MOL      0.071180
      7 N1          6.4160    3.8310   -1.6290 n         1 MOL     -0.739507
      8 C3          7.1870    2.6300   -1.4000 c3        1 MOL      0.254207
      9 C4          6.3210    1.3280   -1.3890 c         1 MOL      0.243093
     10 O2          5.8850    0.8050   -0.3440 o         1 MOL     -0.429823
     11 C5          8.1400    2.6730   -0.2600 c3        1 MOL     -0.066657
     12 C6          7.6160    3.2680    1.0630 c         1 MOL      0.599718
     13 O3          6.7910    2.6220    1.7890 o         1 MOL     -0.666062
     14 O4          8.2000    4.2500    1.5390 o         1 MOL     -0.666062
     15 H4          6.6730    4.4520   -2.3890 hn        1 MOL      0.358847
     16 H5          7.8510    2.4740   -2.2540 h1        1 MOL      0.029740
     17 H6          9.0820    3.0590   -0.6770 hc        1 MOL      0.017193
     18 H7          8.5130    1.6660   -0.0210 hc        1 MOL      0.017193
     19 N2          6.0680    0.7600   -2.5830 n         1 MOL     -0.442151
     20 C7          5.0540   -0.2570   -2.9400 c3        1 MOL     -0.058907
     21 C8          5.5550   -1.6220   -2.5520 c         1 MOL      0.460167
     22 O5          5.3820   -2.5830   -3.3120 o         1 MOL     -0.590033
     23 C9          3.5570    0.0190   -2.5100 c3        1 MOL      0.504946
     24 C10         2.5200   -1.0420   -2.9660 c3        1 MOL     -0.508760
     25 C11         3.2190    1.4250   -3.0310 c3        1 MOL     -0.060614
     26 C12         2.2920   -1.1360   -4.4660 c3        1 MOL     -0.262647
     27 H8          6.4730    1.2440   -3.3700 hn        1 MOL      0.282045
     28 H9          5.0490   -0.1090   -4.0280 h1        1 MOL      0.071836
     29 H10         3.5220   -0.0770   -1.4270 hc        1 MOL     -0.169923
     30 H11         1.5780   -0.6280   -2.6080 hc        1 MOL      0.218261
     31 H12         2.7550   -2.0110   -2.5400 hc        1 MOL      0.218261
     32 H13         2.2870    1.7720   -2.5890 hc        1 MOL     -0.019371
     33 H14         4.0200    2.1350   -2.8340 hc        1 MOL     -0.019371
     34 H15         3.0940    1.3680   -4.1160 hc        1 MOL     -0.019371
     35 H16         1.8060   -2.0910   -4.6960 hc        1 MOL      0.077573
     36 H17         1.6210   -0.3600   -4.8530 hc        1 MOL      0.077573
     37 H18         3.2170   -0.9750   -5.0040 hc        1 MOL      0.077573
     38 N3          6.1280   -1.8140   -1.3550 n         1 MOL     -0.090673
     39 C13         6.9860   -3.0060   -1.0520 c3        1 MOL     -0.071079
     40 C14         6.4000   -4.4510   -1.0480 c         1 MOL      0.643035
     41 O6          7.1230   -5.4130   -1.2590 o         1 MOL     -0.533521
     42 C15         7.7960   -2.6450    0.1990 c3        1 MOL     -0.316455
     43 C16         8.9570   -3.6810    0.4260 c         1 MOL      0.711755
     44 O7          8.9340   -4.3740    1.4670 o         1 MOL     -0.699619
     45 O8          9.8830   -3.7470   -0.3980 o         1 MOL     -0.699619
     46 H19         6.3190   -1.0530   -0.7060 hn        1 MOL      0.183727
     47 H20         7.6380   -3.0400   -1.9230 h1        1 MOL      0.047042
     48 H21         7.0760   -2.5390    1.0130 hc        1 MOL      0.082612
     49 H22         8.2810   -1.6830    0.0580 hc        1 MOL      0.082612
     50 N4          5.1080   -4.6680   -0.8640 n         1 MOL     -0.599017
     51 C17         4.2320   -3.9210   -0.0100 c3        1 MOL      0.567084
     52 C18         4.4500   -3.9180    1.5320 c         1 MOL      0.240995
     53 O9          5.4480   -4.4610    2.0340 o         1 MOL     -0.464723
     54 H23         4.8470   -5.6070   -1.1480 hn        1 MOL      0.274433
     55 H24         3.3580   -4.5790   -0.0940 h1        1 MOL     -0.086624
     56 H25         3.9880   -2.9550   -0.4460 h1        1 MOL     -0.086624
     57 N5          3.5540   -3.3130    2.2850 n         1 MOL     -0.333194
     58 C19         2.2030   -2.7710    1.8620 c3        1 MOL      0.195125
     59 C20         2.2230   -1.2880    1.3260 c         1 MOL      0.636303
     60 O10         3.2950   -0.8410    0.9630 o         1 MOL     -0.591827
     61 C21         1.1850   -2.9620    2.9830 c3        1 MOL     -0.353385
     62 C22         1.2240   -4.3340    3.6420 c         1 MOL      0.712373
     63 O11         1.4600   -4.4290    4.8790 o         1 MOL     -0.716568
     64 O12         1.0170   -5.3430    2.9110 o         1 MOL     -0.716568
     65 H26         3.9200   -3.1360    3.2130 hn        1 MOL      0.285385
     66 H27         1.9130   -3.4150    1.0280 h1        1 MOL      0.038080
     67 H28         0.1550   -2.7830    2.6750 hc        1 MOL      0.038007
     68 H29         1.3720   -2.1950    3.7490 hc        1 MOL      0.038007
     69 N6          1.1410   -0.5710    1.0580 n         1 MOL     -0.295402
     70 C23        -0.3100   -0.9480    0.9550 c3        1 MOL     -0.366220
     71 C24        -0.5740   -2.1510    0.0000 c         1 MOL      0.658757
     72 O13         0.2120   -2.3930   -0.8700 o         1 MOL     -0.548345
     73 H30         1.4450    0.3170    0.6790 hn        1 MOL      0.159540
     74 H31        -0.7700   -0.0320    0.5840 h1        1 MOL      0.138127
     75 H32        -0.7130   -1.0640    1.9590 h1        1 MOL      0.138127
     76 N7         -1.7130   -2.8860    0.1070 n         1 MOL     -0.482102
     77 C25        -2.0120   -3.9830   -0.7920 c3        1 MOL     -0.082300
     78 C26        -2.7990   -3.5020   -2.0480 c         1 MOL      0.406428
     79 O14        -3.2870   -4.3840   -2.7530 o         1 MOL     -0.502815
     80 C27        -2.7780   -5.1740   -0.1420 c3        1 MOL      0.308435
     81 C28        -4.2080   -4.8170    0.3710 c3        1 MOL     -0.115380
     82 C29        -4.7780   -5.9310    1.1690 c         1 MOL      0.604316
     83 N8         -4.7170   -5.8740    2.4900 n         1 MOL     -0.789094
     84 O15        -5.4180   -6.7980    0.6310 o         1 MOL     -0.550837
     85 H33        -2.4390   -2.6210    0.7580 hn        1 MOL      0.290535
     86 H34        -1.1110   -4.4970   -1.1370 h1        1 MOL      0.155874
     87 H35        -2.2490   -5.4300    0.7750 hc        1 MOL     -0.032307
     88 H36        -2.7680   -6.0540   -0.7850 hc        1 MOL     -0.032307
     89 H37        -4.7620   -4.5850   -0.5320 hc        1 MOL     -0.028966
     90 H38        -4.1940   -3.9030    0.9660 hc        1 MOL     -0.028966
     91 H39        -4.1300   -5.1520    2.8790 hn        1 MOL      0.374076
     92 H40        -5.3330   -6.4910    3.0160 hn        1 MOL      0.374076
     93 N9         -3.0740   -2.1980   -2.3070 n         1 MOL     -0.123023
     94 C30        -3.8090   -1.7160   -3.5540 c3        1 MOL     -0.188243
     95 C31        -5.2780   -1.2460   -3.3110 c         1 MOL      0.513009
     96 O16        -6.0460   -0.9400   -4.2010 o         1 MOL     -0.525780
     97 C32        -3.1080   -0.5760   -4.2670 c3        1 MOL      0.202449
     98 C33        -1.6870   -0.9730   -4.7890 c3        1 MOL     -0.107308
     99 C34        -2.8430    0.6960   -3.4310 c3        1 MOL     -0.107308
    100 H41        -2.8310   -1.5070   -1.6180 hn        1 MOL      0.143132
    101 H42        -3.9480   -2.5440   -4.2570 h1        1 MOL      0.138869
    102 H43        -3.6020   -0.2680   -5.1840 hc        1 MOL     -0.003517
    103 H44        -1.1320   -1.3210   -3.9130 hc        1 MOL      0.011459
    104 H45        -1.7860   -1.8390   -5.4480 hc        1 MOL      0.011459
    105 H46        -1.0740   -0.2020   -5.2460 hc        1 MOL      0.011459
    106 H47        -2.4520    1.4330   -4.1270 hc        1 MOL      0.011459
    107 H48        -3.7830    1.0900   -3.0480 hc        1 MOL      0.011459
    108 H49        -2.3160    0.5420   -2.4830 hc        1 MOL      0.011459
    109 N10        -5.6730   -1.2270   -2.0220 n         1 MOL     -0.358641
    110 C35        -7.0470   -0.8070   -1.7790 c3        1 MOL      0.187586
    111 C36        -7.0820    0.6230   -1.1620 c         1 MOL      0.492308
    112 O17        -8.0300    1.3870   -1.4300 o         1 MOL     -0.544567
    113 C37        -7.7760   -1.8420   -0.8490 c3        1 MOL     -0.333135
    114 C38        -7.8420   -3.2580   -1.4580 c         1 MOL      0.622652
    115 N11        -7.5080   -4.3760   -0.7720 n         1 MOL     -0.730489
    116 O18        -8.2100   -3.4570   -2.6080 o         1 MOL     -0.509907
    117 H50        -5.0000   -1.4480   -1.3010 hn        1 MOL      0.224588
    118 H51        -7.6820   -0.7470   -2.6670 h1        1 MOL      0.070891
    119 H52        -8.8030   -1.4970   -0.7070 hc        1 MOL      0.094915
    120 H53        -7.2310   -1.8950    0.0910 hc        1 MOL      0.094915
    121 H54        -7.3440   -4.3690    0.2230 hn        1 MOL      0.340041
    122 H55        -7.5520   -5.3170   -1.1580 hn        1 MOL      0.340041
    123 N12        -6.0260    0.9670   -0.4190 n         1 MOL     -0.351491
    124 C39        -5.9020    2.1440    0.4280 c3        1 MOL      0.041070
    125 C40        -4.5310    2.7990    0.4200 c         1 MOL      0.525362
    126 O19        -3.5000    2.3260   -0.1070 o         1 MOL     -0.455542
    127 C41        -6.2850    1.7710    1.8640 c3        1 MOL     -0.088606
    128 C42        -7.6050    1.0560    2.1030 ca        1 MOL      0.006066
    129 C43        -8.8250    1.6220    1.5970 ca        1 MOL     -0.173187
    130 C44        -7.6190   -0.1550    2.7440 ca        1 MOL     -0.173187
    131 C45       -10.0070    0.8120    1.7190 ca        1 MOL     -0.201737
    132 C46        -8.7960   -0.9500    2.8050 ca        1 MOL     -0.201737
    133 C47        -9.9890   -0.5100    2.2890 ca        1 MOL      0.294212
    134 O20       -11.1130   -1.3300    2.4920 oh        1 MOL     -0.540366
    135 H56        -5.3000    0.2790   -0.2990 hn        1 MOL      0.235358
    136 H57        -6.6870    2.8290    0.1090 h1        1 MOL      0.063408
    137 H58        -6.2310    2.7140    2.3970 hc        1 MOL      0.066287
    138 H59        -5.4820    1.1140    2.2200 hc        1 MOL      0.066287
    139 H60        -8.9080    2.5250    1.0100 ha        1 MOL      0.147240
    140 H61        -6.7490   -0.5720    3.2250 ha        1 MOL      0.147240
    141 H62       -10.9440    1.1990    1.3310 ha        1 MOL      0.112779
    142 H63        -8.7670   -1.9160    3.2990 ha        1 MOL      0.112779
    143 H64       -11.9260   -1.1340    2.0120 ho        1 MOL      0.385191
    144 N13        -4.5340    4.0550    0.9750 n         1 MOL     -0.632085
    145 C48        -3.3580    4.8590    1.3670 c3        1 MOL      0.242413
    146 C49        -2.3440    5.2880    0.2790 c         1 MOL      0.086660
    147 O21        -1.9110    6.4570    0.3470 o         1 MOL     -0.490613
    148 C50        -2.5210    4.2790    2.5050 c3        1 MOL      0.141080
    149 C51        -3.2990    4.1500    3.8580 c3        1 MOL     -0.206778
    150 C52        -2.5120    3.4810    4.9950 c         1 MOL      0.605076
    151 O22        -1.9750    2.3620    4.7260 o         1 MOL     -0.699148
    152 O23        -2.1970    4.0440    6.1030 o         1 MOL     -0.699148
    153 H65        -5.4250    4.4380    1.2780 hn        1 MOL      0.340381
    154 H66        -3.7640    5.8110    1.7090 h1        1 MOL      0.031730
    155 H67        -1.5610    4.7640    2.6610 hc        1 MOL      0.015900
    156 H68        -2.3240    3.2680    2.1620 hc        1 MOL      0.015900
    157 H69        -4.2600    3.6630    3.7160 hc        1 MOL     -0.005240
    158 H70        -3.5280    5.1920    4.0780 hc        1 MOL     -0.005240
    159 N14        -1.8670    4.3740   -0.6270 n         1 MOL      0.263139
    160 C53        -0.8280    4.5960   -1.5570 c3        1 MOL     -0.393988
    161 C54        -1.2060    5.3450   -2.8370 c         1 MOL      0.561932
    162 O24        -0.4220    6.0510   -3.3270 o         1 MOL     -0.534663
    163 C55        -0.2710    3.2500   -1.8470 c3        1 MOL      0.139883
    164 C56         0.0170    2.2830   -0.6340 c3        1 MOL      0.590985
    165 C57         1.1370    2.7370    0.2700 c         1 MOL      0.621499
    166 O25         2.1690    2.0790    0.4460 o         1 MOL     -0.697362
    167 O26         0.9330    3.7880    0.9250 o         1 MOL     -0.697362
    168 H71        -2.4940    3.5790   -0.6630 hn        1 MOL      0.074400
    169 H72        -0.0640    5.1630   -1.0200 h1        1 MOL      0.192231
    170 H73         0.6970    3.3620   -2.3500 hc        1 MOL     -0.049965
    171 H74        -0.9040    2.6900   -2.5350 hc        1 MOL     -0.049965
    172 H75         0.3420    1.3870   -1.1610 hc        1 MOL     -0.229252
    173 H76        -0.9190    2.1600   -0.0760 hc        1 MOL     -0.229252
    174 N15        -2.4960    5.3670   -3.0700 n         1 MOL     -0.204319
    175 C58        -3.1150    6.3060   -3.9870 c3        1 MOL     -0.480329
    176 H77        -2.9490    7.3230   -3.6320 h1        1 MOL      0.161768
    177 H78        -2.6750    6.1920   -4.9770 h1        1 MOL      0.161768
    178 H79        -4.1860    6.1110   -4.0390 h1        1 MOL      0.161768
    179 H80        -3.0920    4.7970   -2.4960 hn        1 MOL      0.197314
    180 Ca1         4.3970    1.6760    1.7520 Ca        1 MOL      1.739090
    181 O27         4.8720    2.9470    4.0770 oh        1 MOL     -0.860783
    182 H81         5.5740    2.9440    4.7380 ho        1 MOL      0.412939
    183 H82         4.1600    3.4310    4.4840 ho        1 MOL      0.412939
    184 O28         2.9680    0.6030    3.7440 oh        1 MOL     -0.860783
    185 H83         2.1130    1.0440    3.7570 ho        1 MOL      0.412939
    186 H84         2.9530    0.0300    4.5160 ho        1 MOL      0.412939
    187 O29         3.1590    4.2750    2.2080 oh        1 MOL     -0.860783
    188 H85         2.8970    4.2730    3.1310 ho        1 MOL      0.412939
    189 H86         2.3970    3.9210    1.7370 ho        1 MOL      0.412939
    190 O30         5.7910   -0.2940    2.8910 oh        1 MOL     -0.860783
    191 H87         5.3340   -0.7990    3.5710 ho        1 MOL      0.412939
    192 H88         6.7120   -0.4120    3.1040 ho        1 MOL      0.412939
@<TRIPOS>BOND
     1    1    2 1   
     2    1    4 1   
     3    1    5 1   
     4    1    6 1   
     5    2    3 2   
     6    2    7 1   
     7    7    8 1   
     8    7   15 1   
     9    8    9 1   
    10    8   11 1   
    11    8   16 1   
    12    9   10 2   
    13    9   19 1   
    14   11   12 1   
    15   11   17 1   
    16   11   18 1   
    17   12   13 1   
    18   12   14 1   
    19   19   20 1   
    20   19   27 1   
    21   20   21 1   
    22   20   23 1   
    23   20   28 1   
    24   21   22 2   
    25   21   38 1   
    26   23   24 1   
    27   23   25 1   
    28   23   29 1   
    29   24   26 1   
    30   24   30 1   
    31   24   31 1   
    32   25   32 1   
    33   25   33 1   
    34   25   34 1   
    35   26   35 1   
    36   26   36 1   
    37   26   37 1   
    38   38   39 1   
    39   38   46 1   
    40   39   40 1   
    41   39   42 1   
    42   39   47 1   
    43   40   41 2   
    44   40   50 1   
    45   42   43 1   
    46   42   48 1   
    47   42   49 1   
    48   43   44 1   
    49   43   45 1   
    50   50   51 1   
    51   50   54 1   
    52   51   52 1   
    53   51   55 1   
    54   51   56 1   
    55   52   53 2   
    56   52   57 1   
    57   57   58 1   
    58   57   65 1   
    59   58   59 1   
    60   58   61 1   
    61   58   66 1   
    62   59   60 2   
    63   59   69 1   
    64   61   62 1   
    65   61   67 1   
    66   61   68 1   
    67   62   63 1   
    68   62   64 1   
    69   69   70 1   
    70   69   73 1   
    71   70   71 1   
    72   70   74 1   
    73   70   75 1   
    74   71   72 2   
    75   71   76 1   
    76   76   77 1   
    77   76   85 1   
    78   77   78 1   
    79   77   80 1   
    80   77   86 1   
    81   78   79 2   
    82   78   93 1   
    83   80   81 1   
    84   80   87 1   
    85   80   88 1   
    86   81   82 1   
    87   81   89 1   
    88   81   90 1   
    89   82   83 1   
    90   82   84 2   
    91   83   91 1   
    92   83   92 1   
    93   93   94 1   
    94   93  100 1   
    95   94   95 1   
    96   94   97 1   
    97   94  101 1   
    98   95   96 2   
    99   95  109 1   
   100   97   98 1   
   101   97   99 1   
   102   97  102 1   
   103   98  103 1   
   104   98  104 1   
   105   98  105 1   
   106   99  106 1   
   107   99  107 1   
   108   99  108 1   
   109  109  110 1   
   110  109  117 1   
   111  110  111 1   
   112  110  113 1   
   113  110  118 1   
   114  111  112 2   
   115  111  123 1   
   116  113  114 1   
   117  113  119 1   
   118  113  120 1   
   119  114  115 1   
   120  114  116 2   
   121  115  121 1   
   122  115  122 1   
   123  123  124 1   
   124  123  135 1   
   125  124  125 1   
   126  124  127 1   
   127  124  136 1   
   128  125  126 2   
   129  125  144 1   
   130  127  128 1   
   131  127  137 1   
   132  127  138 1   
   133  128  129 ar  
   134  128  130 ar  
   135  129  131 ar  
   136  129  139 1   
   137  130  132 ar  
   138  130  140 1   
   139  131  133 ar  
   140  131  141 1   
   141  132  133 ar  
   142  132  142 1   
   143  133  134 1   
   144  134  143 1   
   145  144  145 1   
   146  144  153 1   
   147  145  146 1   
   148  145  148 1   
   149  145  154 1   
   150  146  147 2   
   151  146  159 1   
   152  148  149 1   
   153  148  155 1   
   154  148  156 1   
   155  149  150 1   
   156  149  157 1   
   157  149  158 1   
   158  150  151 1   
   159  150  152 1   
   160  159  160 1   
   161  159  168 1   
   162  160  161 1   
   163  160  163 1   
   164  160  169 1   
   165  161  162 2   
   166  161  174 1   
   167  163  164 1   
   168  163  170 1   
   169  163  171 1   
   170  164  165 1   
   171  164  172 1   
   172  164  173 1   
   173  165  166 1   
   174  165  167 1   
   175  174  175 1   
   176  174  179 1   
   177  175  176 1   
   178  175  177 1   
   179  175  178 1   
   180  181  182 1   
   181  181  183 1   
   182  184  185 1   
   183  184  186 1   
   184  187  188 1   
   185  187  189 1   
   186  190  191 1   
   187  190  192 1   
@<TRIPOS>SUBSTRUCTURE
     1 MOL         1 TEMP              0 ****  ****    0 ROOT
