@<TRIPOS>MOLECULE
MOL
  192   187     1     0     0
SMALL
resp


@<TRIPOS>ATOM
      1 C1         -6.2760   -2.1350    5.9850 c3        1 MOL     -0.199362
      2 C2         -5.8340   -1.7470    4.5380 c         1 MOL      0.730676
      3 O1         -5.9030   -2.6680    3.7070 o         1 MOL     -0.573730
      4 H1         -5.5480   -1.7520    6.7010 hc        1 MOL      0.048312
      5 H2         -7.2540   -1.7020    6.1950 hc        1 MOL      0.048312
      6 H3         -6.3320   -3.2200    6.0700 hc        1 MOL      0.048312
      7 N1         -5.5130   -0.4560    4.1510 n         1 MOL     -0.536346
      8 C3         -5.2850    0.0770    2.8190 c3        1 MOL      0.477278
      9 C4         -3.8510   -0.2430    2.2690 c         1 MOL      0.083541
     10 O2         -3.3980    0.3900    1.2820 o         1 MOL     -0.141622
     11 C5         -5.3730    1.6360    2.9060 c3        1 MOL     -0.225657
     12 C6         -6.7180    2.2100    3.4600 c         1 MOL      0.681101
     13 O3         -7.1130    1.9320    4.6300 o         1 MOL     -0.675101
     14 O4         -7.4430    2.8770    2.6810 o         1 MOL     -0.675101
     15 H4         -5.9320    0.2010    4.7940 hn        1 MOL      0.186011
     16 H5         -5.9810   -0.3970    2.1250 h1        1 MOL     -0.000509
     17 H6         -5.2240    2.0610    1.9120 hc        1 MOL     -0.040453
     18 H7         -4.5440    1.9940    3.5240 hc        1 MOL     -0.040453
     19 N2         -3.1000   -1.1420    2.8980 n         1 MOL     -0.161953
     20 C7         -1.6240   -1.1740    2.7960 c3        1 MOL      0.006876
     21 C8         -1.1880   -2.4620    2.2290 c         1 MOL      0.749483
     22 O5         -1.6040   -3.4990    2.6700 o         1 MOL     -0.571118
     23 C9         -1.0110   -1.0850    4.1350 c3        1 MOL     -0.178203
     24 C10        -1.3340    0.0900    5.0800 c3        1 MOL      0.065622
     25 C11        -1.2250    1.5020    4.5370 c3        1 MOL     -0.004626
     26 C12        -1.4440    2.5650    5.6280 c3        1 MOL      0.179628
     27 N3         -0.5180    2.5340    6.7080 n4        1 MOL     -0.407832
     28 H8         -3.5220   -1.5820    3.7060 hn        1 MOL      0.137843
     29 H9         -1.2610   -0.3680    2.1540 h1        1 MOL      0.123018
     30 H10         0.0560   -1.2740    4.0590 hc        1 MOL      0.080429
     31 H11        -1.3120   -2.0020    4.6540 hc        1 MOL      0.080429
     32 H12        -0.6590    0.0090    5.9230 hc        1 MOL     -0.042406
     33 H13        -2.3240   -0.0210    5.5180 hc        1 MOL     -0.042406
     34 H14        -1.8530    1.5860    3.6520 hc        1 MOL      0.012548
     35 H15        -0.2870    1.6520    4.0000 hc        1 MOL      0.012548
     36 H16        -2.4250    2.3560    6.0510 hx        1 MOL      0.035023
     37 H17        -1.4370    3.5910    5.2500 hx        1 MOL      0.035023
     38 H18        -0.8450    1.7200    7.2180 hn        1 MOL      0.340790
     39 H19         0.4120    2.3590    6.3500 hn        1 MOL      0.340790
     40 H20        -0.6220    3.3610    7.2620 hn        1 MOL      0.340790
     41 N4         -0.1810   -2.4930    1.3220 n         1 MOL     -0.542342
     42 C13         0.6270   -1.4090    0.7290 c3        1 MOL     -0.204178
     43 C14         1.2720   -0.3750    1.6960 c         1 MOL      0.570311
     44 O6          0.7730    0.7010    1.9810 o         1 MOL     -0.570708
     45 C15        -0.0820   -0.8040   -0.5210 c3        1 MOL     -0.288972
     46 C16        -0.3090   -1.7400   -1.6540 c         1 MOL      0.646536
     47 O7          0.1340   -2.8930   -1.6870 o         1 MOL     -0.715327
     48 O8         -0.9980   -1.3520   -2.5920 o         1 MOL     -0.715327
     49 H21         0.1750   -3.4370    1.2360 hn        1 MOL      0.249384
     50 H22         1.5320   -1.8330    0.2880 h1        1 MOL      0.068839
     51 H23         0.5520    0.0370   -0.8250 hc        1 MOL      0.179044
     52 H24        -1.0350   -0.3340   -0.2980 hc        1 MOL      0.179044
     53 N5          2.5380   -0.5700    2.0970 n         1 MOL     -0.283946
     54 C17         3.4550   -1.6800    2.0630 c3        1 MOL     -0.167278
     55 C18         4.5530   -1.5830    3.1010 c         1 MOL      0.560884
     56 O9          4.5740   -0.7530    3.9870 o         1 MOL     -0.535312
     57 H25         2.9040    0.1760    2.6670 hn        1 MOL      0.239715
     58 H26         3.9240   -1.8010    1.0880 h1        1 MOL      0.109700
     59 H27         2.8580   -2.5930    2.1150 h1        1 MOL      0.109700
     60 N6          5.5290   -2.4680    3.1150 n         1 MOL     -0.420712
     61 C19         5.8600   -3.4380    2.0940 c3        1 MOL      0.022536
     62 C20         6.6390   -2.8560    0.8810 c         1 MOL      0.406828
     63 O10         7.5220   -1.9680    0.9920 o         1 MOL     -0.416743
     64 C21         6.6500   -4.5970    2.6580 c3        1 MOL     -0.079680
     65 C22         7.9200   -4.2870    3.4720 c         1 MOL      0.680847
     66 O11         9.0030   -4.7690    3.0950 o         1 MOL     -0.619087
     67 O12         7.8010   -3.6560    4.5290 o         1 MOL     -0.619087
     68 H28         6.1340   -2.4330    3.9190 hn        1 MOL      0.286600
     69 H29         4.9020   -3.8910    1.8400 h1        1 MOL      0.008796
     70 H30         6.7740   -5.3230    1.8600 hc        1 MOL      0.006202
     71 H31         6.0060   -5.0690    3.4010 hc        1 MOL      0.006202
     72 N7          6.3610   -3.3510   -0.2980 n         1 MOL     -0.151350
     73 C23         7.0430   -2.9610   -1.5540 c3        1 MOL     -0.286591
     74 C24         6.9470   -1.4950   -1.8780 c         1 MOL      0.486322
     75 O13         7.9780   -0.8210   -2.0210 o         1 MOL     -0.498497
     76 H32         5.6510   -4.0670   -0.4330 hn        1 MOL      0.134260
     77 H33         6.6880   -3.5510   -2.3940 h1        1 MOL      0.138329
     78 H34         8.0920   -3.1940   -1.3940 h1        1 MOL      0.138329
     79 N8          5.7040   -0.9610   -1.9120 n         1 MOL     -0.473132
     80 C25         5.3890    0.3780   -2.3310 c3        1 MOL      0.291990
     81 C26         5.3130    1.2720   -1.0970 c         1 MOL      0.450798
     82 O14         5.2610    0.8100    0.0360 o         1 MOL     -0.407748
     83 C27         4.1170    0.4140   -3.2140 c3        1 MOL      0.178134
     84 C28         4.0430   -0.7270   -4.3240 c3        1 MOL     -0.113285
     85 O15         4.0530    1.5570   -4.0050 oh        1 MOL     -0.623368
     86 H35         4.9490   -1.6240   -1.8570 hn        1 MOL      0.234848
     87 H36         6.2620    0.7080   -2.9040 h1        1 MOL      0.049521
     88 H37         3.2680    0.3910   -2.5330 h1        1 MOL      0.024038
     89 H38         3.1630    1.9190   -4.0840 ho        1 MOL      0.434898
     90 H39         3.0600   -0.6100   -4.7840 hc        1 MOL      0.037113
     91 H40         4.6530   -0.4270   -5.1810 hc        1 MOL      0.037113
     92 H41         4.1220   -1.7480   -3.9640 hc        1 MOL      0.037113
     93 N9          5.1850    2.5770   -1.3800 n         1 MOL     -0.521831
     94 C29         5.4230    3.6000   -0.3010 c3        1 MOL     -0.218948
     95 C30         4.2870    4.6140   -0.0800 c         1 MOL      0.688835
     96 O16         4.4470    5.5240    0.6910 o         1 MOL     -0.596228
     97 C31         6.8010    4.3390   -0.4830 c3        1 MOL      0.202408
     98 C32         6.9640    5.0540   -1.8740 c3        1 MOL     -0.005420
     99 C33         7.8690    3.2120   -0.3340 c3        1 MOL     -0.196013
    100 C34         8.2090    5.8970   -2.0630 c3        1 MOL     -0.225531
    101 H42         5.3200    2.8440   -2.3440 hn        1 MOL      0.250866
    102 H43         5.5480    3.1050    0.6640 h1        1 MOL      0.153650
    103 H44         6.9320    5.0810    0.3090 hc        1 MOL     -0.002442
    104 H45         6.0920    5.6980   -1.9750 hc        1 MOL      0.026739
    105 H46         7.0400    4.2300   -2.5790 hc        1 MOL      0.026739
    106 H47         7.7900    2.3200   -0.9590 hc        1 MOL      0.062785
    107 H48         8.8700    3.6440   -0.3840 hc        1 MOL      0.062785
    108 H49         7.8140    2.7980    0.6700 hc        1 MOL      0.062785
    109 H50         9.0590    5.2800   -2.3280 hc        1 MOL      0.055561
    110 H51         7.9090    6.5040   -2.9180 hc        1 MOL      0.055561
    111 H52         8.4750    6.5340   -1.2150 hc        1 MOL      0.055561
    112 N10         3.1430    4.3880   -0.6460 n         1 MOL     -0.485402
    113 C35         1.8380    4.9770   -0.2850 c3        1 MOL     -0.013374
    114 C36         0.7760    3.8290   -0.3250 c         1 MOL      0.770818
    115 O17         0.9240    2.6710   -0.7380 o         1 MOL     -0.574835
    116 C37         1.5260    6.1830   -1.1610 c3        1 MOL      0.254938
    117 C38         0.2700    7.0290   -0.7500 c3        1 MOL     -0.441011
    118 O18         1.2980    5.7350   -2.4700 oh        1 MOL     -0.609941
    119 H53         3.1840    3.6990   -1.3840 hn        1 MOL      0.276726
    120 H54         1.9330    5.3050    0.7550 h1        1 MOL      0.090461
    121 H55         2.4070    6.8240   -1.1790 h1        1 MOL      0.050057
    122 H56         1.1020    6.5420   -2.9560 ho        1 MOL      0.402676
    123 H57         0.4100    7.2560    0.3110 hc        1 MOL      0.114287
    124 H58         0.2810    7.8900   -1.4220 hc        1 MOL      0.114287
    125 H59        -0.6620    6.5090   -0.9410 hc        1 MOL      0.114287
    126 N11        -0.4150    4.1620    0.2230 n         1 MOL     -0.630008
    127 C39        -1.5680    3.2720    0.3220 c3        1 MOL     -0.122195
    128 C40        -2.1660    2.9670   -1.0680 c         1 MOL      0.518535
    129 O19        -2.0990    3.8170   -1.9550 o         1 MOL     -0.522864
    130 C41        -2.7170    3.8440    1.2060 c3        1 MOL      0.575399
    131 C42        -3.3880    5.1360    0.7700 c3        1 MOL     -0.334376
    132 O20        -2.2310    3.9320    2.5120 oh        1 MOL     -0.682291
    133 H60        -0.5630    5.0850    0.6140 hn        1 MOL      0.317689
    134 H61        -1.2900    2.4180    0.9390 h1        1 MOL      0.198509
    135 H62        -3.4900    3.0770    1.2300 h1        1 MOL      0.041874
    136 H63        -3.0110    3.8910    3.0860 ho        1 MOL      0.367637
    137 H64        -4.3370    5.1360    1.3120 hc        1 MOL      0.069409
    138 H65        -2.7760    5.9710    1.1110 hc        1 MOL      0.069409
    139 H66        -3.5310    5.1960   -0.3040 hc        1 MOL      0.069409
    140 N12        -2.9380    1.8930   -1.1500 n         1 MOL     -0.012484
    141 C43        -3.7970    1.5910   -2.3010 c3        1 MOL     -0.403467
    142 C44        -4.0870    0.0440   -2.4400 c         1 MOL      0.949899
    143 O21        -4.3450   -0.2950   -3.6070 o         1 MOL     -0.672916
    144 C45        -5.0790    2.4250   -2.0490 c3        1 MOL     -0.690733
    145 C46        -6.2280    2.2310   -3.0670 c3        1 MOL      0.286677
    146 C47        -5.9200    2.6700   -4.4530 c3        1 MOL     -0.173421
    147 C48        -7.1540    3.4390   -4.9750 c3        1 MOL      0.165563
    148 N13        -7.0020    3.5710   -6.4700 n4        1 MOL     -0.477006
    149 H67        -3.1290    1.4160   -0.2840 hn        1 MOL     -0.194338
    150 H68        -3.2290    1.9170   -3.1650 h1        1 MOL      0.186142
    151 H69        -4.7000    3.4490   -2.0070 hc        1 MOL      0.246108
    152 H70        -5.4730    2.2970   -1.0460 hc        1 MOL      0.246108
    153 H71        -7.1040    2.7340   -2.6330 hc        1 MOL     -0.011565
    154 H72        -6.5740    1.1980   -3.1340 hc        1 MOL     -0.011565
    155 H73        -5.8780    1.7810   -5.0850 hc        1 MOL      0.085559
    156 H74        -5.0730    3.3570   -4.4640 hc        1 MOL      0.085559
    157 H75        -7.1410    4.4410   -4.5410 hx        1 MOL      0.047066
    158 H76        -8.0510    2.9210   -4.6390 hx        1 MOL      0.047066
    159 H77        -7.1520    2.6590   -6.8860 hn        1 MOL      0.351553
    160 H78        -7.7380    4.1880   -6.7670 hn        1 MOL      0.351553
    161 H79        -6.0980    3.9520   -6.6950 hn        1 MOL      0.351553
    162 N14        -4.1280   -0.7940   -1.4190 n         1 MOL     -0.142944
    163 C49        -4.6100   -2.2300   -1.4360 c3        1 MOL     -0.458742
    164 C50        -6.0740   -2.3980   -1.0780 c         1 MOL      0.310236
    165 O22        -6.6560   -1.8170   -0.1540 o         1 MOL     -0.438462
    166 C51        -3.5910   -3.0770   -0.5830 c3        1 MOL      1.067872
    167 C52        -3.7240   -4.6330   -0.6320 c3        1 MOL     -0.469682
    168 C53        -3.6960   -5.1880   -2.0120 c         1 MOL      0.614121
    169 O23        -4.7970   -5.3520   -2.5610 o         1 MOL     -0.676521
    170 O24        -2.6160   -5.3120   -2.6170 o         1 MOL     -0.676521
    171 H80        -3.9130   -0.4310   -0.5000 hn        1 MOL      0.121502
    172 H81        -4.4710   -2.5590   -2.4690 h1        1 MOL      0.157048
    173 H82        -3.7050   -2.7410    0.4410 hc        1 MOL     -0.273178
    174 H83        -2.5660   -2.7600   -0.7560 hc        1 MOL     -0.273178
    175 H84        -4.5720   -5.0000   -0.0610 hc        1 MOL      0.077230
    176 H85        -2.8880   -5.0700   -0.0840 hc        1 MOL      0.077230
    177 N15        -6.7470   -3.2740   -1.8480 n         1 MOL     -0.162490
    178 C54        -8.1500   -3.5780   -1.7760 c3        1 MOL     -0.175117
    179 H86        -8.3260   -4.5750   -2.1790 h1        1 MOL      0.083486
    180 H87        -8.4770   -3.5430   -0.7370 h1        1 MOL      0.083486
    181 H88        -8.7100   -2.8470   -2.3590 h1        1 MOL      0.083486
    182 H89        -6.1900   -3.6880   -2.5870 hn        1 MOL      0.293931
    183 Ca1        -0.0680   -5.1830   -2.7040 Ca        1 MOL      1.486949
    184 O25         2.2580   -4.8880   -4.4240 oh        1 MOL     -0.719558
    185 H90         2.8540   -5.3750   -3.8550 ho        1 MOL      0.359873
    186 H91         2.8200   -4.4830   -5.0770 ho        1 MOL      0.359873
    187 O26        -0.4320   -6.3720   -5.1440 oh        1 MOL     -0.719558
    188 H92        -0.7740   -6.6420   -5.9930 ho        1 MOL      0.359873
    189 H93         0.1360   -7.0960   -4.8660 ho        1 MOL      0.359873
    190 O27        -0.9600   -3.4670   -4.4320 oh        1 MOL     -0.719558
    191 H94        -0.2990   -3.2000   -5.0700 ho        1 MOL      0.359873
    192 H95        -1.0680   -2.6970   -3.8710 ho        1 MOL      0.359873
@<TRIPOS>BOND
     1    1    2 1   
     2    1    4 1   
     3    1    5 1   
     4    1    6 1   
     5    2    3 2   
     6    2    7 1   
     7    7    8 1   
     8    7   15 1   
     9    8    9 1   
    10    8   11 1   
    11    8   16 1   
    12    9   10 2   
    13    9   19 1   
    14   11   12 1   
    15   11   17 1   
    16   11   18 1   
    17   12   13 1   
    18   12   14 1   
    19   19   20 1   
    20   19   28 1   
    21   20   21 1   
    22   20   23 1   
    23   20   29 1   
    24   21   22 2   
    25   21   41 1   
    26   23   24 1   
    27   23   30 1   
    28   23   31 1   
    29   24   25 1   
    30   24   32 1   
    31   24   33 1   
    32   25   26 1   
    33   25   34 1   
    34   25   35 1   
    35   26   27 1   
    36   26   36 1   
    37   26   37 1   
    38   27   38 1   
    39   27   39 1   
    40   27   40 1   
    41   41   42 1   
    42   41   49 1   
    43   42   43 1   
    44   42   45 1   
    45   42   50 1   
    46   43   44 2   
    47   43   53 1   
    48   45   46 1   
    49   45   51 1   
    50   45   52 1   
    51   46   47 1   
    52   46   48 1   
    53   53   54 1   
    54   53   57 1   
    55   54   55 1   
    56   54   58 1   
    57   54   59 1   
    58   55   56 2   
    59   55   60 1   
    60   60   61 1   
    61   60   68 1   
    62   61   62 1   
    63   61   64 1   
    64   61   69 1   
    65   62   63 2   
    66   62   72 1   
    67   64   65 1   
    68   64   70 1   
    69   64   71 1   
    70   65   66 1   
    71   65   67 1   
    72   72   73 1   
    73   72   76 1   
    74   73   74 1   
    75   73   77 1   
    76   73   78 1   
    77   74   75 2   
    78   74   79 1   
    79   79   80 1   
    80   79   86 1   
    81   80   81 1   
    82   80   83 1   
    83   80   87 1   
    84   81   82 2   
    85   81   93 1   
    86   83   84 1   
    87   83   85 1   
    88   83   88 1   
    89   84   90 1   
    90   84   91 1   
    91   84   92 1   
    92   85   89 1   
    93   93   94 1   
    94   93  101 1   
    95   94   95 1   
    96   94   97 1   
    97   94  102 1   
    98   95   96 2   
    99   95  112 1   
   100   97   98 1   
   101   97   99 1   
   102   97  103 1   
   103   98  100 1   
   104   98  104 1   
   105   98  105 1   
   106   99  106 1   
   107   99  107 1   
   108   99  108 1   
   109  100  109 1   
   110  100  110 1   
   111  100  111 1   
   112  112  113 1   
   113  112  119 1   
   114  113  114 1   
   115  113  116 1   
   116  113  120 1   
   117  114  115 2   
   118  114  126 1   
   119  116  117 1   
   120  116  118 1   
   121  116  121 1   
   122  117  123 1   
   123  117  124 1   
   124  117  125 1   
   125  118  122 1   
   126  126  127 1   
   127  126  133 1   
   128  127  128 1   
   129  127  130 1   
   130  127  134 1   
   131  128  129 2   
   132  128  140 1   
   133  130  131 1   
   134  130  132 1   
   135  130  135 1   
   136  131  137 1   
   137  131  138 1   
   138  131  139 1   
   139  132  136 1   
   140  140  141 1   
   141  140  149 1   
   142  141  142 1   
   143  141  144 1   
   144  141  150 1   
   145  142  143 2   
   146  142  162 1   
   147  144  145 1   
   148  144  151 1   
   149  144  152 1   
   150  145  146 1   
   151  145  153 1   
   152  145  154 1   
   153  146  147 1   
   154  146  155 1   
   155  146  156 1   
   156  147  148 1   
   157  147  157 1   
   158  147  158 1   
   159  148  159 1   
   160  148  160 1   
   161  148  161 1   
   162  162  163 1   
   163  162  171 1   
   164  163  164 1   
   165  163  166 1   
   166  163  172 1   
   167  164  165 2   
   168  164  177 1   
   169  166  167 1   
   170  166  173 1   
   171  166  174 1   
   172  167  168 1   
   173  167  175 1   
   174  167  176 1   
   175  168  169 1   
   176  168  170 1   
   177  177  178 1   
   178  177  182 1   
   179  178  179 1   
   180  178  180 1   
   181  178  181 1   
   182  184  185 1   
   183  184  186 1   
   184  187  188 1   
   185  187  189 1   
   186  190  191 1   
   187  190  192 1   
@<TRIPOS>SUBSTRUCTURE
     1 MOL         1 TEMP              0 ****  ****    0 ROOT
