@<TRIPOS>MOLECULE
MOL
  192   187     1     0     0
SMALL
resp


@<TRIPOS>ATOM
      1 C1         -6.7040   -3.7070    4.2050 c3        1 MOL     -0.281831
      2 C2         -5.8480   -2.8570    3.2260 c         1 MOL      0.732277
      3 O1         -5.3960   -3.4410    2.2540 o         1 MOL     -0.573271
      4 H1         -7.7610   -3.5180    4.0210 hc        1 MOL      0.072382
      5 H2         -6.4920   -4.7640    4.0490 hc        1 MOL      0.072382
      6 H3         -6.4600   -3.4350    5.2320 hc        1 MOL      0.072382
      7 N1         -5.7430   -1.4970    3.3310 n         1 MOL     -0.602711
      8 C3         -5.2150   -0.6180    2.2800 c3        1 MOL      0.429294
      9 C4         -3.6760   -0.6530    2.0740 c         1 MOL      0.000248
     10 O2         -3.1100    0.0850    1.2450 o         1 MOL     -0.019268
     11 C5         -5.7620    0.7660    2.4870 c3        1 MOL     -0.323677
     12 C6         -7.2540    0.9640    2.4160 c         1 MOL      0.737067
     13 O3         -7.7970    1.2170    1.3360 o         1 MOL     -0.709890
     14 O4         -7.9520    0.9220    3.4830 o         1 MOL     -0.709890
     15 H4         -6.2110   -1.0070    4.0790 hn        1 MOL      0.261117
     16 H5         -5.5830   -1.0350    1.3500 h1        1 MOL      0.086475
     17 H6         -5.2960    1.3490    1.6910 hc        1 MOL      0.043277
     18 H7         -5.3940    1.2330    3.3970 hc        1 MOL      0.043277
     19 N2         -2.9450   -1.5700    2.8200 n         1 MOL     -0.140886
     20 C7         -1.5200   -1.7320    2.7940 c3        1 MOL      0.054927
     21 C8         -1.0710   -2.8280    1.8600 c         1 MOL      0.429982
     22 O5         -1.3910   -3.9830    2.1450 o         1 MOL     -0.518687
     23 C9         -0.9930   -1.8050    4.2340 c3        1 MOL     -0.430456
     24 C10        -1.3460   -0.5220    4.9790 c3        1 MOL      0.135166
     25 C11        -0.8260   -0.6440    6.3980 c3        1 MOL     -0.017244
     26 C12        -0.9250    0.6390    7.1190 c3        1 MOL      0.027360
     27 N3          0.2430    1.5300    6.9300 n4        1 MOL     -0.326518
     28 H8         -3.4410   -2.1690    3.4610 hn        1 MOL      0.195919
     29 H9         -1.0720   -0.8410    2.3660 h1        1 MOL      0.013520
     30 H10         0.0640   -2.0510    4.3440 hc        1 MOL      0.138330
     31 H11        -1.5480   -2.5950    4.7360 hc        1 MOL      0.138330
     32 H12        -2.4300   -0.4100    5.0010 hc        1 MOL      0.003818
     33 H13        -0.9340    0.3170    4.4320 hc        1 MOL      0.003818
     34 H14         0.1810   -1.0350    6.4800 hc        1 MOL      0.047909
     35 H15        -1.5290   -1.2740    6.9430 hc        1 MOL      0.047909
     36 H16        -0.9390    0.2840    8.1520 hx        1 MOL      0.069450
     37 H17        -1.8180    1.2220    6.8620 hx        1 MOL      0.069450
     38 H18         0.2490    2.3000    7.5760 hn        1 MOL      0.322335
     39 H19         1.1240    1.0420    7.0180 hn        1 MOL      0.322335
     40 H20         0.1620    1.9680    6.0220 hn        1 MOL      0.322335
     41 N4         -0.1520   -2.6720    0.9310 n         1 MOL     -0.092474
     42 C13         0.5270   -1.4800    0.4550 c3        1 MOL     -0.225814
     43 C14         1.0230   -0.5240    1.5750 c         1 MOL      0.877139
     44 O6          0.5930    0.5890    1.7260 o         1 MOL     -0.637284
     45 C15        -0.0590   -0.8320   -0.7150 c3        1 MOL     -0.611951
     46 C16        -0.0450   -1.6670   -1.9670 c         1 MOL      0.693684
     47 O7          0.7830   -2.6230   -2.0160 o         1 MOL     -0.658182
     48 O8         -0.8910   -1.3700   -2.8240 o         1 MOL     -0.658182
     49 H21         0.0190   -3.5750    0.5120 hn        1 MOL      0.085861
     50 H22         1.4260   -1.9480    0.0670 h1        1 MOL      0.037947
     51 H23         0.4580    0.1270   -0.8340 hc        1 MOL      0.256341
     52 H24        -1.0860   -0.5210   -0.5410 hc        1 MOL      0.256341
     53 N5          2.0120   -0.9390    2.4280 n         1 MOL     -0.600015
     54 C17         3.0050   -2.0130    2.1810 c3        1 MOL     -0.010442
     55 C18         4.2950   -1.8350    2.9870 c         1 MOL      0.599637
     56 O9          4.4120   -0.8920    3.8110 o         1 MOL     -0.564164
     57 H25         2.0910   -0.5050    3.3440 hn        1 MOL      0.293405
     58 H26         3.2790   -1.8360    1.1460 h1        1 MOL      0.083965
     59 H27         2.6700   -3.0490    2.1860 h1        1 MOL      0.083965
     60 N6          5.2650   -2.6940    2.7540 n         1 MOL     -0.587437
     61 C19         5.4190   -3.6350    1.6710 c3        1 MOL      0.206043
     62 C20         6.3220   -3.0140    0.5730 c         1 MOL      0.323139
     63 O10         7.3250   -2.3880    0.9800 o         1 MOL     -0.380285
     64 C21         6.0290   -4.9700    2.0920 c3        1 MOL     -0.039039
     65 C22         7.3490   -4.8220    2.7780 c         1 MOL      0.655926
     66 O11         8.3690   -5.3050    2.2450 o         1 MOL     -0.632454
     67 O12         7.4120   -4.0820    3.7550 o         1 MOL     -0.632454
     68 H28         6.1330   -2.4260    3.2010 hn        1 MOL      0.362717
     69 H29         4.4710   -3.8540    1.1900 h1        1 MOL     -0.041800
     70 H30         6.0480   -5.6190    1.2240 hc        1 MOL     -0.024714
     71 H31         5.3740   -5.4720    2.8130 hc        1 MOL     -0.024714
     72 N7          6.1090   -3.2970   -0.6830 n         1 MOL     -0.115249
     73 C23         6.9490   -2.7210   -1.7270 c3        1 MOL     -0.330843
     74 C24         6.7860   -1.2060   -2.0480 c         1 MOL      0.506635
     75 O13         7.7810   -0.4450   -2.0610 o         1 MOL     -0.503530
     76 H32         5.4040   -3.9800   -0.8900 hn        1 MOL      0.153081
     77 H33         6.6750   -3.3240   -2.5930 h1        1 MOL      0.145739
     78 H34         7.9790   -2.9550   -1.4310 h1        1 MOL      0.145739
     79 N8          5.5420   -0.7230   -2.1340 n         1 MOL     -0.434053
     80 C25         5.0270    0.7330   -2.1440 c3        1 MOL     -0.037257
     81 C26         5.2900    1.4930   -0.8300 c         1 MOL      0.569128
     82 O14         5.3240    0.9560    0.3020 o         1 MOL     -0.468835
     83 C27         3.4420    0.8970   -2.2930 c3        1 MOL      0.324361
     84 C28         3.0710    0.1020   -3.5620 c3        1 MOL     -0.280299
     85 O15         3.0650    2.2190   -2.6820 oh        1 MOL     -0.618381
     86 H35         4.9250   -1.4970   -1.9730 hn        1 MOL      0.230285
     87 H36         5.5200    1.2850   -2.9460 h1        1 MOL      0.145523
     88 H37         2.8730    0.7050   -1.3840 h1        1 MOL      0.056071
     89 H38         2.1190    2.3180   -2.5530 ho        1 MOL      0.359598
     90 H39         3.0960   -0.9740   -3.3790 hc        1 MOL      0.070486
     91 H40         2.0750    0.3760   -3.9200 hc        1 MOL      0.070486
     92 H41         3.7730    0.3880   -4.3440 hc        1 MOL      0.070486
     93 N9          5.5690    2.8130   -0.9920 n         1 MOL     -0.527575
     94 C29         5.5030    3.8550    0.0160 c3        1 MOL     -0.061819
     95 C30         4.2690    4.7890    0.0320 c         1 MOL      0.495528
     96 O16         4.3200    5.7880    0.8030 o         1 MOL     -0.569742
     97 C31         6.8380    4.6480    0.1630 c3        1 MOL      0.404382
     98 C32         7.3490    5.4810   -1.0180 c3        1 MOL      0.054631
     99 C33         7.9560    3.7100    0.6310 c3        1 MOL     -0.651510
    100 C34         8.4040    6.5320   -0.8410 c3        1 MOL     -0.193447
    101 H42         5.6300    3.1270   -1.9500 hn        1 MOL      0.248301
    102 H43         5.3860    3.3610    0.9820 h1        1 MOL      0.113253
    103 H44         6.6440    5.2910    1.0230 hc        1 MOL     -0.047004
    104 H45         6.4710    6.0220   -1.3880 hc        1 MOL     -0.006309
    105 H46         7.7120    4.7580   -1.7460 hc        1 MOL     -0.006309
    106 H47         7.6700    3.4280    1.6440 hc        1 MOL      0.169106
    107 H48         7.8060    2.8160    0.0210 hc        1 MOL      0.169106
    108 H49         9.0120    3.9550    0.5660 hc        1 MOL      0.169106
    109 H50         7.9640    7.2840   -0.1830 hc        1 MOL      0.042789
    110 H51         9.3600    6.1340   -0.4810 hc        1 MOL      0.042789
    111 H52         8.6250    7.0170   -1.7950 hc        1 MOL      0.042789
    112 N10         3.2560    4.5810   -0.7780 n         1 MOL     -0.422669
    113 C35         1.9010    5.1550   -0.6960 c3        1 MOL      0.018911
    114 C36         0.7460    4.0400   -0.7200 c         1 MOL      0.489010
    115 O17         0.5920    3.2070   -1.6430 o         1 MOL     -0.530572
    116 C37         1.6400    6.0540   -1.9120 c3        1 MOL      0.471796
    117 C38         2.4820    7.3290   -1.7880 c3        1 MOL     -0.332940
    118 O18         0.2580    6.4050   -1.9650 oh        1 MOL     -0.601799
    119 H53         3.3780    3.7410   -1.3260 hn        1 MOL      0.243722
    120 H54         1.8630    5.7630    0.2030 h1        1 MOL      0.092481
    121 H55         2.0160    5.5670   -2.8140 h1        1 MOL     -0.032434
    122 H56         0.0740    6.2280   -2.8890 ho        1 MOL      0.381298
    123 H57         2.1990    7.8720   -0.8860 hc        1 MOL      0.072854
    124 H58         3.5240    7.0150   -1.8450 hc        1 MOL      0.072854
    125 H59         2.2100    7.8130   -2.7280 hc        1 MOL      0.072854
    126 N11        -0.0130    4.0600    0.3150 n         1 MOL     -0.421298
    127 C39        -1.0890    3.1120    0.4860 c3        1 MOL     -0.071204
    128 C40        -2.1840    3.3120   -0.5620 c         1 MOL      0.420389
    129 O19        -2.3000    4.3680   -1.2210 o         1 MOL     -0.521640
    130 C41        -1.6890    3.1290    1.8450 c3        1 MOL      0.521380
    131 C42        -2.3560    4.4290    2.2140 c3        1 MOL     -0.286879
    132 O20        -0.7340    2.8000    2.8010 oh        1 MOL     -0.714408
    133 H60         0.1470    4.6880    1.0860 hn        1 MOL      0.307292
    134 H61        -0.6760    2.1220    0.2720 h1        1 MOL      0.139146
    135 H62        -2.3440    2.2740    1.9760 h1        1 MOL     -0.046784
    136 H63        -0.3280    1.9820    2.5220 ho        1 MOL      0.396405
    137 H64        -2.6150    4.5210    3.2690 hc        1 MOL      0.073858
    138 H65        -1.6740    5.2550    1.9870 hc        1 MOL      0.073858
    139 H66        -3.3100    4.4890    1.6970 hc        1 MOL      0.073858
    140 N12        -3.0970    2.3400   -0.6510 n         1 MOL      0.018108
    141 C43        -4.1950    2.2420   -1.6930 c3        1 MOL     -0.255622
    142 C44        -4.3510    0.7440   -2.2440 c         1 MOL      0.706743
    143 O21        -4.7020    0.6270   -3.3930 o         1 MOL     -0.625627
    144 C45        -5.4060    2.7680   -1.0420 c3        1 MOL      0.182567
    145 C46        -6.4840    3.3410   -2.0080 c3        1 MOL     -0.027695
    146 C47        -7.7640    3.8940   -1.3540 c3        1 MOL     -0.065879
    147 C48        -8.8880    4.0880   -2.3520 c3        1 MOL      0.169867
    148 N13        -9.9670    4.8380   -1.7710 n4        1 MOL     -0.354344
    149 H67        -2.9800    1.5960    0.0260 hn        1 MOL     -0.272799
    150 H68        -3.9280    2.9200   -2.5010 h1        1 MOL      0.106663
    151 H69        -5.1540    3.6030   -0.4000 hc        1 MOL     -0.000708
    152 H70        -5.7660    1.9590   -0.4190 hc        1 MOL     -0.000708
    153 H71        -6.7780    2.5530   -2.7050 hc        1 MOL      0.003609
    154 H72        -6.0690    4.2210   -2.4970 hc        1 MOL      0.003609
    155 H73        -7.5450    4.8180   -0.8140 hc        1 MOL      0.034278
    156 H74        -8.0560    3.1410   -0.6280 hc        1 MOL      0.034278
    157 H75        -9.2520    3.1600   -2.8030 hx        1 MOL      0.052432
    158 H76        -8.5390    4.5900   -3.2490 hx        1 MOL      0.052432
    159 H77        -9.6870    5.6510   -1.2360 hn        1 MOL      0.313444
    160 H78       -10.7450    5.0470   -2.3860 hn        1 MOL      0.313444
    161 H79       -10.4040    4.2680   -1.0700 hn        1 MOL      0.313444
    162 N14        -4.1430   -0.2780   -1.4510 n         1 MOL     -0.054433
    163 C49        -4.3430   -1.6550   -1.7890 c3        1 MOL     -0.542692
    164 C50        -5.7800   -2.0280   -1.9470 c         1 MOL      0.482662
    165 O22        -6.5830   -1.7240   -1.0760 o         1 MOL     -0.480048
    166 C51        -3.6340   -2.5670   -0.7700 c3        1 MOL      1.428165
    167 C52        -3.6360   -3.9870   -1.1840 c3        1 MOL     -0.591630
    168 C53        -3.0650   -4.2770   -2.6010 c         1 MOL      0.589440
    169 O23        -3.9280   -4.3900   -3.5190 o         1 MOL     -0.669302
    170 O24        -1.8180   -4.4570   -2.8180 o         1 MOL     -0.669302
    171 H80        -4.0030   -0.0200   -0.4870 hn        1 MOL     -0.021913
    172 H81        -3.8990   -1.7410   -2.7850 h1        1 MOL      0.205060
    173 H82        -4.1370   -2.4100    0.1810 hc        1 MOL     -0.405647
    174 H83        -2.6400   -2.1120   -0.6980 hc        1 MOL     -0.405647
    175 H84        -4.6590   -4.3550   -1.1440 hc        1 MOL      0.114197
    176 H85        -3.0610   -4.5780   -0.4720 hc        1 MOL      0.114197
    177 N15        -6.1490   -2.8340   -2.9570 n         1 MOL     -0.294273
    178 C54        -7.4640   -3.4280   -3.2740 c3        1 MOL     -0.189713
    179 H86        -8.0770   -2.6940   -3.7960 h1        1 MOL      0.090036
    180 H87        -7.3240   -4.3020   -3.9100 h1        1 MOL      0.090036
    181 H88        -7.9610   -3.7260   -2.3510 h1        1 MOL      0.090036
    182 H89        -5.4290   -3.0760   -3.6330 hn        1 MOL      0.312078
    183 Ca1         0.6080   -4.8600   -3.3290 Ca        1 MOL      1.592145
    184 O25         1.4630   -6.1250   -5.7200 oh        1 MOL     -0.845839
    185 H90         2.2890   -6.5250   -5.4500 ho        1 MOL      0.422085
    186 H91         1.5090   -6.1010   -6.6760 ho        1 MOL      0.422085
    187 O26         2.3950   -3.3140   -4.3700 oh        1 MOL     -0.845839
    188 H92         3.3220   -3.1020   -4.3110 ho        1 MOL      0.422085
    189 H93         2.0230   -2.6150   -4.9010 ho        1 MOL      0.422085
    190 O27        -0.0500   -3.5510   -5.6150 oh        1 MOL     -0.845839
    191 H94        -0.8660   -3.6240   -6.1120 ho        1 MOL      0.422085
    192 H95         0.4050   -2.7960   -5.9970 ho        1 MOL      0.422085
@<TRIPOS>BOND
     1    1    2 1   
     2    1    4 1   
     3    1    5 1   
     4    1    6 1   
     5    2    3 2   
     6    2    7 1   
     7    7    8 1   
     8    7   15 1   
     9    8    9 1   
    10    8   11 1   
    11    8   16 1   
    12    9   10 2   
    13    9   19 1   
    14   11   12 1   
    15   11   17 1   
    16   11   18 1   
    17   12   13 1   
    18   12   14 1   
    19   19   20 1   
    20   19   28 1   
    21   20   21 1   
    22   20   23 1   
    23   20   29 1   
    24   21   22 2   
    25   21   41 1   
    26   23   24 1   
    27   23   30 1   
    28   23   31 1   
    29   24   25 1   
    30   24   32 1   
    31   24   33 1   
    32   25   26 1   
    33   25   34 1   
    34   25   35 1   
    35   26   27 1   
    36   26   36 1   
    37   26   37 1   
    38   27   38 1   
    39   27   39 1   
    40   27   40 1   
    41   41   42 1   
    42   41   49 1   
    43   42   43 1   
    44   42   45 1   
    45   42   50 1   
    46   43   44 2   
    47   43   53 1   
    48   45   46 1   
    49   45   51 1   
    50   45   52 1   
    51   46   47 1   
    52   46   48 1   
    53   53   54 1   
    54   53   57 1   
    55   54   55 1   
    56   54   58 1   
    57   54   59 1   
    58   55   56 2   
    59   55   60 1   
    60   60   61 1   
    61   60   68 1   
    62   61   62 1   
    63   61   64 1   
    64   61   69 1   
    65   62   63 2   
    66   62   72 1   
    67   64   65 1   
    68   64   70 1   
    69   64   71 1   
    70   65   66 1   
    71   65   67 1   
    72   72   73 1   
    73   72   76 1   
    74   73   74 1   
    75   73   77 1   
    76   73   78 1   
    77   74   75 2   
    78   74   79 1   
    79   79   80 1   
    80   79   86 1   
    81   80   81 1   
    82   80   83 1   
    83   80   87 1   
    84   81   82 2   
    85   81   93 1   
    86   83   84 1   
    87   83   85 1   
    88   83   88 1   
    89   84   90 1   
    90   84   91 1   
    91   84   92 1   
    92   85   89 1   
    93   93   94 1   
    94   93  101 1   
    95   94   95 1   
    96   94   97 1   
    97   94  102 1   
    98   95   96 2   
    99   95  112 1   
   100   97   98 1   
   101   97   99 1   
   102   97  103 1   
   103   98  100 1   
   104   98  104 1   
   105   98  105 1   
   106   99  106 1   
   107   99  107 1   
   108   99  108 1   
   109  100  109 1   
   110  100  110 1   
   111  100  111 1   
   112  112  113 1   
   113  112  119 1   
   114  113  114 1   
   115  113  116 1   
   116  113  120 1   
   117  114  115 2   
   118  114  126 1   
   119  116  117 1   
   120  116  118 1   
   121  116  121 1   
   122  117  123 1   
   123  117  124 1   
   124  117  125 1   
   125  118  122 1   
   126  126  127 1   
   127  126  133 1   
   128  127  128 1   
   129  127  130 1   
   130  127  134 1   
   131  128  129 2   
   132  128  140 1   
   133  130  131 1   
   134  130  132 1   
   135  130  135 1   
   136  131  137 1   
   137  131  138 1   
   138  131  139 1   
   139  132  136 1   
   140  140  141 1   
   141  140  149 1   
   142  141  142 1   
   143  141  144 1   
   144  141  150 1   
   145  142  143 2   
   146  142  162 1   
   147  144  145 1   
   148  144  151 1   
   149  144  152 1   
   150  145  146 1   
   151  145  153 1   
   152  145  154 1   
   153  146  147 1   
   154  146  155 1   
   155  146  156 1   
   156  147  148 1   
   157  147  157 1   
   158  147  158 1   
   159  148  159 1   
   160  148  160 1   
   161  148  161 1   
   162  162  163 1   
   163  162  171 1   
   164  163  164 1   
   165  163  166 1   
   166  163  172 1   
   167  164  165 2   
   168  164  177 1   
   169  166  167 1   
   170  166  173 1   
   171  166  174 1   
   172  167  168 1   
   173  167  175 1   
   174  167  176 1   
   175  168  169 1   
   176  168  170 1   
   177  177  178 1   
   178  177  182 1   
   179  178  179 1   
   180  178  180 1   
   181  178  181 1   
   182  184  185 1   
   183  184  186 1   
   184  187  188 1   
   185  187  189 1   
   186  190  191 1   
   187  190  192 1   
@<TRIPOS>SUBSTRUCTURE
     1 MOL         1 TEMP              0 ****  ****    0 ROOT
