@<TRIPOS>MOLECULE
MOL
  195   189     1     0     0
SMALL
resp


@<TRIPOS>ATOM
      1 C1          0.9490    4.3870    3.5080 c3        1 MOL     -0.210717
      2 C2          0.2390    4.2330    2.1590 c         1 MOL      0.788876
      3 O1         -0.1840    3.1320    1.8870 o         1 MOL     -0.527108
      4 H1          2.0270    4.3540    3.3560 hc        1 MOL      0.028074
      5 H2          0.6750    5.3420    3.9560 hc        1 MOL      0.028074
      6 H3          0.6500    3.5750    4.1700 hc        1 MOL      0.028074
      7 N1          0.1990    5.3170    1.3710 n         1 MOL     -0.646636
      8 C3         -0.3210    5.4370    0.0330 c3        1 MOL      0.195025
      9 C4         -1.8340    5.1480   -0.1300 c         1 MOL      0.481361
     10 O2         -2.3170    4.3660   -1.0070 o         1 MOL     -0.515664
     11 C5          0.5690    4.7390   -1.0520 c3        1 MOL     -0.218604
     12 C6          2.1300    5.0060   -0.9250 c         1 MOL      0.528826
     13 O3          2.7550    5.7900   -1.7170 o         1 MOL     -0.656365
     14 O4          2.7900    4.6250    0.0540 o         1 MOL     -0.656365
     15 H4          0.5390    6.1810    1.7700 hn        1 MOL      0.290557
     16 H5         -0.2380    6.5100   -0.1670 h1        1 MOL      0.063628
     17 H6          0.1110    5.0660   -1.9910 hc        1 MOL      0.095737
     18 H7          0.4690    3.6570   -0.9780 hc        1 MOL      0.095737
     19 N2         -2.6380    5.6670    0.7700 n         1 MOL     -0.610455
     20 C7         -4.0480    5.3280    0.9110 c3        1 MOL      0.596626
     21 C8         -4.9070    6.1670   -0.0660 c         1 MOL      0.289531
     22 O5         -4.5190    7.2390   -0.4520 o         1 MOL     -0.539356
     23 C9         -4.4650    5.4350    2.4110 c3        1 MOL      0.006125
     24 C10        -4.3570    6.8670    3.0310 c3        1 MOL      0.101538
     25 C11        -3.7360    4.3980    3.2700 c3        1 MOL     -0.175717
     26 C12        -5.5720    7.6620    2.9890 c3        1 MOL      0.044633
     27 H8         -2.2570    6.3130    1.4470 hn        1 MOL      0.253391
     28 H9         -4.2420    4.2900    0.6450 h1        1 MOL     -0.028327
     29 H10        -5.5200    5.1590    2.3850 hc        1 MOL      0.058845
     30 H11        -3.5990    7.4360    2.4900 hc        1 MOL     -0.058016
     31 H12        -4.0200    6.8480    4.0730 hc        1 MOL     -0.058016
     32 H13        -3.8040    3.4060    2.8240 hc        1 MOL      0.027908
     33 H14        -2.7010    4.6940    3.3900 hc        1 MOL      0.027908
     34 H15        -4.2700    4.4300    4.2200 hc        1 MOL      0.027908
     35 H16        -6.2770    7.3610    3.7580 hc        1 MOL     -0.022953
     36 H17        -5.3230    8.6960    3.2220 hc        1 MOL     -0.022953
     37 H18        -6.0000    7.5950    1.9930 hc        1 MOL     -0.022953
     38 N3         -6.1700    5.8140   -0.4240 n         1 MOL     -0.388618
     39 C13        -6.9300    4.5710   -0.1530 c3        1 MOL      0.048357
     40 C14        -6.3380    3.3420   -0.8810 c         1 MOL      0.687518
     41 O6         -6.1770    2.2490   -0.2670 o         1 MOL     -0.543237
     42 C15        -8.3640    4.7940   -0.5420 c3        1 MOL     -0.205072
     43 C16        -9.2740    3.5680   -0.2800 c         1 MOL      0.680644
     44 O7         -9.2140    2.9300    0.8360 o         1 MOL     -0.686427
     45 O8        -10.0960    3.2250   -1.1650 o         1 MOL     -0.686427
     46 H19        -6.5130    6.3760   -1.1890 hn        1 MOL      0.271439
     47 H20        -6.8420    4.3400    0.9070 h1        1 MOL     -0.021950
     48 H21        -8.4020    5.1020   -1.5890 hc        1 MOL      0.018309
     49 H22        -8.7460    5.6680   -0.0120 hc        1 MOL      0.018309
     50 N4         -5.9980    3.4950   -2.1830 n         1 MOL     -0.491220
     51 C17        -5.1590    2.5010   -2.9220 c3        1 MOL     -0.230925
     52 C18        -5.9100    1.1560   -3.0000 c         1 MOL      0.556550
     53 O9         -7.1040    1.1790   -3.1980 o         1 MOL     -0.504571
     54 H23        -6.2750    4.3390   -2.6570 hn        1 MOL      0.314633
     55 H24        -4.1800    2.3130   -2.4880 h1        1 MOL      0.131848
     56 H25        -4.9620    2.8310   -3.9340 h1        1 MOL      0.131848
     57 N5         -5.2330   -0.0150   -2.8910 n         1 MOL     -0.441734
     58 C19        -5.7020   -1.3720   -3.2610 c3        1 MOL      0.022853
     59 C20        -6.4660   -2.1660   -2.1800 c         1 MOL      0.412253
     60 O10        -7.1590   -3.1760   -2.3940 o         1 MOL     -0.579958
     61 C21        -4.5130   -2.2760   -3.6800 c3        1 MOL     -0.216159
     62 C22        -3.4040   -2.1040   -2.6670 c         1 MOL      0.727748
     63 O11        -2.5700   -1.1770   -2.7800 o         1 MOL     -0.694167
     64 O12        -3.4430   -2.8060   -1.6360 o         1 MOL     -0.694167
     65 H26        -4.2410    0.0020   -2.7170 hn        1 MOL      0.263173
     66 H27        -6.4180   -1.2140   -4.0720 h1        1 MOL      0.080531
     67 H28        -4.1800   -1.9800   -4.6750 hc        1 MOL      0.040433
     68 H29        -4.7750   -3.3340   -3.7800 hc        1 MOL      0.040433
     69 N6         -6.2230   -1.8070   -0.9450 n         1 MOL     -0.095539
     70 C23        -6.9680   -2.5250    0.1540 c3        1 MOL     -0.303669
     71 C24        -6.3500   -3.8380    0.5200 c         1 MOL      0.554260
     72 O13        -6.8350   -4.3940    1.4680 o         1 MOL     -0.609905
     73 H30        -5.5970   -1.0480   -0.7170 hn        1 MOL      0.244172
     74 H31        -7.9950   -2.7370   -0.1130 h1        1 MOL      0.146849
     75 H32        -6.9570   -1.7840    0.9510 h1        1 MOL      0.146849
     76 N7         -5.2790   -4.3110   -0.1110 n         1 MOL     -0.077363
     77 C25        -4.5120   -5.6100   -0.0770 c3        1 MOL     -0.148074
     78 C26        -3.8250   -5.8740    1.3240 c         1 MOL      0.493480
     79 O14        -3.6780   -7.0380    1.7390 o         1 MOL     -0.538355
     80 C27        -5.3750   -6.7600   -0.6490 c3        1 MOL      0.219268
     81 C28        -5.4480   -6.5790   -2.2040 c3        1 MOL     -0.269227
     82 C29        -5.5990   -7.9400   -2.8690 c         1 MOL      0.617063
     83 N8         -6.8030   -8.3760   -3.3050 n         1 MOL     -0.778995
     84 O15        -4.6910   -8.6960   -2.9150 o         1 MOL     -0.548846
     85 H33        -4.9430   -3.6110   -0.7550 hn        1 MOL      0.091452
     86 H34        -3.6560   -5.3980   -0.7100 h1        1 MOL      0.139185
     87 H35        -6.3400   -6.8960   -0.1750 hc        1 MOL     -0.003375
     88 H36        -4.8490   -7.6930   -0.4620 hc        1 MOL     -0.003375
     89 H37        -4.5930   -6.1040   -2.6850 hc        1 MOL      0.085819
     90 H38        -6.3360   -5.9900   -2.4320 hc        1 MOL      0.085819
     91 H39        -7.5480   -7.7200   -3.4880 hn        1 MOL      0.335689
     92 H40        -6.7750   -9.2740   -3.7530 hn        1 MOL      0.335689
     93 N9         -3.5430   -4.8460    2.1310 n         1 MOL     -0.375026
     94 C30        -2.9590   -4.9050    3.4740 c3        1 MOL      0.023520
     95 C31        -1.5010   -4.3660    3.5410 c         1 MOL      0.601274
     96 O16        -0.7240   -4.8840    4.2890 o         1 MOL     -0.593554
     97 C32        -3.7880   -4.2150    4.5880 c3        1 MOL      0.368279
     98 C33        -4.0800   -2.8170    4.3110 c3        1 MOL     -0.324293
     99 C34        -5.1310   -4.9880    4.8430 c3        1 MOL     -0.324293
    100 H41        -3.7210   -3.9420    1.7090 hn        1 MOL      0.188780
    101 H42        -2.8690   -5.9260    3.8360 h1        1 MOL      0.062659
    102 H43        -3.1520   -4.2810    5.4740 hc        1 MOL     -0.088885
    103 H44        -3.2030   -2.2960    3.9340 hc        1 MOL      0.068231
    104 H45        -4.9550   -2.7010    3.6770 hc        1 MOL      0.068231
    105 H46        -4.3120   -2.2930    5.2300 hc        1 MOL      0.068231
    106 H47        -5.5700   -4.6030    5.7610 hc        1 MOL      0.068231
    107 H48        -5.8620   -4.7970    4.0550 hc        1 MOL      0.068231
    108 H49        -4.8540   -6.0270    5.0050 hc        1 MOL      0.068231
    109 N10        -1.1320   -3.4170    2.6980 n         1 MOL     -0.528042
    110 C35         0.1350   -2.7900    2.7960 c3        1 MOL      0.383747
    111 C36         0.9920   -2.8700    1.5480 c         1 MOL      0.513173
    112 O17         0.4800   -3.1600    0.4710 o         1 MOL     -0.573887
    113 C37        -0.1750   -1.3660    3.1880 c3        1 MOL     -0.375097
    114 C38         0.9440   -0.8080    4.0670 c         1 MOL      0.659358
    115 N11         0.5810   -0.1480    5.0930 n         1 MOL     -0.809932
    116 O18         2.1020   -0.7370    3.6950 o         1 MOL     -0.542560
    117 H50        -1.7870   -3.0290    2.0270 hn        1 MOL      0.301639
    118 H51         0.6740   -3.3000    3.5810 h1        1 MOL      0.015429
    119 H52        -1.1090   -1.2340    3.7340 hc        1 MOL      0.113053
    120 H53        -0.1880   -0.6660    2.3560 hc        1 MOL      0.113053
    121 H54        -0.3740   -0.2400    5.3990 hn        1 MOL      0.360667
    122 H55         1.0790    0.6490    5.4740 hn        1 MOL      0.360667
    123 N12         2.2910   -2.7980    1.6260 n         1 MOL     -0.424625
    124 C39         3.2590   -2.8830    0.5030 c3        1 MOL      0.077632
    125 C40         4.7350   -3.0530    0.8260 c         1 MOL      0.723632
    126 O19         5.1190   -2.8950    1.9840 o         1 MOL     -0.590557
    127 C41         3.0950   -1.6190   -0.3890 c3        1 MOL     -0.457764
    128 C42         3.2500   -1.9470   -1.8700 ca        1 MOL      0.123765
    129 C43         4.4700   -1.6060   -2.4830 ca        1 MOL     -0.171771
    130 C44         2.2400   -2.6020   -2.5980 ca        1 MOL     -0.171771
    131 C45         4.6470   -1.9030   -3.8440 ca        1 MOL     -0.287346
    132 C46         2.4610   -3.0190   -3.9390 ca        1 MOL     -0.287346
    133 C47         3.6230   -2.5430   -4.5640 ca        1 MOL      0.344177
    134 O20         3.8260   -2.8720   -5.8760 oh        1 MOL     -0.501255
    135 H56         2.6850   -2.8150    2.5620 hn        1 MOL      0.224062
    136 H57         2.9690   -3.6850   -0.1730 h1        1 MOL      0.091761
    137 H58         3.7960   -0.9120    0.0430 hc        1 MOL      0.184042
    138 H59         2.0790   -1.2280   -0.3850 hc        1 MOL      0.184042
    139 H60         5.2480   -1.1240   -1.9090 ha        1 MOL      0.223650
    140 H61         1.2880   -2.7950   -2.1320 ha        1 MOL      0.223650
    141 H62         5.6070   -1.6920   -4.3060 ha        1 MOL      0.163357
    142 H63         1.6240   -3.4700   -4.4500 ha        1 MOL      0.163357
    143 H64         4.7370   -2.7500   -6.1430 ho        1 MOL      0.345152
    144 N13         5.5440   -3.3480   -0.1580 n         1 MOL     -0.933436
    145 C48         7.0070   -3.4470   -0.0350 c3        1 MOL      0.454412
    146 C49         7.7980   -2.5020   -1.0030 c         1 MOL      0.389510
    147 O21         8.4460   -2.9710   -1.8580 o         1 MOL     -0.505585
    148 C50         7.2980   -4.9570   -0.2460 c3        1 MOL      0.100181
    149 C51         8.7860   -5.3010    0.2030 c3        1 MOL     -0.418655
    150 C52         8.9700   -6.7590   -0.0570 c         1 MOL      0.740511
    151 O22         8.4770   -7.2180   -1.1450 o         1 MOL     -0.687877
    152 O23         9.4440   -7.5720    0.7260 o         1 MOL     -0.687877
    153 H65         5.1430   -3.5080   -1.0710 hn        1 MOL      0.391259
    154 H66         7.3600   -3.2100    0.9620 h1        1 MOL      0.018417
    155 H67         7.0330   -5.2330   -1.2720 hc        1 MOL      0.017375
    156 H68         6.5910   -5.4920    0.4010 hc        1 MOL      0.017375
    157 H69         8.8410   -5.0600    1.2590 hc        1 MOL      0.090639
    158 H70         9.5510   -4.6910   -0.2860 hc        1 MOL      0.090639
    159 N14         7.9900   -1.1980   -0.7010 n         1 MOL     -0.547548
    160 C53         7.3390   -0.4590    0.3720 c3        1 MOL      0.180216
    161 C54         7.7650   -0.7490    1.8040 c         1 MOL      0.445504
    162 O24         8.9290   -1.1170    1.9810 o         1 MOL     -0.553052
    163 C55         7.3330    1.0040   -0.0050 c3        1 MOL     -0.086519
    164 C56         6.6180    1.2700   -1.3150 c3        1 MOL     -0.311531
    165 C57         6.5480    2.7710   -1.8060 c         1 MOL      0.815588
    166 O25         5.6720    3.4860   -1.3750 o         1 MOL     -0.674331
    167 O26         7.3550    3.1580   -2.6540 o         1 MOL     -0.674331
    168 H71         8.6630   -0.6450   -1.2200 hn        1 MOL      0.373075
    169 H72         6.3130   -0.8340    0.4490 h1        1 MOL      0.055163
    170 H73         8.3600    1.3620   -0.0560 hc        1 MOL      0.001876
    171 H74         6.8470    1.6440    0.7310 hc        1 MOL      0.001876
    172 H75         5.5720    1.0300   -1.1200 hc        1 MOL      0.019960
    173 H76         6.9790    0.6510   -2.1270 hc        1 MOL      0.019960
    174 N15         6.9970   -0.3310    2.7530 n         1 MOL     -0.188692
    175 C58         7.3660   -0.2460    4.1690 c3        1 MOL     -0.378793
    176 H77         6.9940   -1.1260    4.6940 h1        1 MOL      0.138995
    177 H78         8.4510   -0.2010    4.2600 h1        1 MOL      0.138995
    178 H79         6.9260    0.6510    4.6060 h1        1 MOL      0.138995
    179 H80         6.0280   -0.1740    2.5410 hn        1 MOL      0.262462
    180 Ca1         5.1700    5.8370   -0.5870 Ca        1 MOL      1.691948
    181 O27         6.5300    8.0620   -0.1030 oh        1 MOL     -0.860784
    182 H81         6.6890    8.1240    0.8380 ho        1 MOL      0.396896
    183 H82         6.0800    8.8840   -0.3170 ho        1 MOL      0.396896
    184 O28         3.9420    8.3090   -1.7250 oh        1 MOL     -0.860784
    185 H83         4.6200    8.6350   -2.3120 ho        1 MOL      0.396896
    186 H84         3.1280    8.6860   -2.0620 ho        1 MOL      0.396896
    187 O29         7.7030    5.3740   -1.3380 oh        1 MOL     -0.860784
    188 H85         7.7310    4.6240   -1.9120 ho        1 MOL      0.396896
    189 H86         8.6150    5.6730   -1.2670 ho        1 MOL      0.396896
    190 O30         5.1200    4.5200    1.7820 oh        1 MOL     -0.860784
    191 H87         5.6780    4.0880    2.4280 ho        1 MOL      0.396896
    192 H88         4.3640    3.9450    1.6960 ho        1 MOL      0.396896
    193 O31         5.4490    6.1920   -3.3130 oh        1 MOL     -0.860784
    194 H89         5.3470    6.9580   -3.8850 ho        1 MOL      0.396896
    195 H90         4.9380    5.4990   -3.7450 ho        1 MOL      0.396896
@<TRIPOS>BOND
     1    1    2 1   
     2    1    4 1   
     3    1    5 1   
     4    1    6 1   
     5    2    3 2   
     6    2    7 1   
     7    7    8 1   
     8    7   15 1   
     9    8    9 1   
    10    8   11 1   
    11    8   16 1   
    12    9   10 2   
    13    9   19 1   
    14   11   12 1   
    15   11   17 1   
    16   11   18 1   
    17   12   13 1   
    18   12   14 1   
    19   19   20 1   
    20   19   27 1   
    21   20   21 1   
    22   20   23 1   
    23   20   28 1   
    24   21   22 2   
    25   21   38 1   
    26   23   24 1   
    27   23   25 1   
    28   23   29 1   
    29   24   26 1   
    30   24   30 1   
    31   24   31 1   
    32   25   32 1   
    33   25   33 1   
    34   25   34 1   
    35   26   35 1   
    36   26   36 1   
    37   26   37 1   
    38   38   39 1   
    39   38   46 1   
    40   39   40 1   
    41   39   42 1   
    42   39   47 1   
    43   40   41 2   
    44   40   50 1   
    45   42   43 1   
    46   42   48 1   
    47   42   49 1   
    48   43   44 1   
    49   43   45 1   
    50   50   51 1   
    51   50   54 1   
    52   51   52 1   
    53   51   55 1   
    54   51   56 1   
    55   52   53 2   
    56   52   57 1   
    57   57   58 1   
    58   57   65 1   
    59   58   59 1   
    60   58   61 1   
    61   58   66 1   
    62   59   60 2   
    63   59   69 1   
    64   61   62 1   
    65   61   67 1   
    66   61   68 1   
    67   62   63 1   
    68   62   64 1   
    69   69   70 1   
    70   69   73 1   
    71   70   71 1   
    72   70   74 1   
    73   70   75 1   
    74   71   72 2   
    75   71   76 1   
    76   76   77 1   
    77   76   85 1   
    78   77   78 1   
    79   77   80 1   
    80   77   86 1   
    81   78   79 2   
    82   78   93 1   
    83   80   81 1   
    84   80   87 1   
    85   80   88 1   
    86   81   82 1   
    87   81   89 1   
    88   81   90 1   
    89   82   83 1   
    90   82   84 2   
    91   83   91 1   
    92   83   92 1   
    93   93   94 1   
    94   93  100 1   
    95   94   95 1   
    96   94   97 1   
    97   94  101 1   
    98   95   96 2   
    99   95  109 1   
   100   97   98 1   
   101   97   99 1   
   102   97  102 1   
   103   98  103 1   
   104   98  104 1   
   105   98  105 1   
   106   99  106 1   
   107   99  107 1   
   108   99  108 1   
   109  109  110 1   
   110  109  117 1   
   111  110  111 1   
   112  110  113 1   
   113  110  118 1   
   114  111  112 2   
   115  111  123 1   
   116  113  114 1   
   117  113  119 1   
   118  113  120 1   
   119  114  115 1   
   120  114  116 2   
   121  115  121 1   
   122  115  122 1   
   123  123  124 1   
   124  123  135 1   
   125  124  125 1   
   126  124  127 1   
   127  124  136 1   
   128  125  126 2   
   129  125  144 1   
   130  127  128 1   
   131  127  137 1   
   132  127  138 1   
   133  128  129 ar  
   134  128  130 ar  
   135  129  131 ar  
   136  129  139 1   
   137  130  132 ar  
   138  130  140 1   
   139  131  133 ar  
   140  131  141 1   
   141  132  133 ar  
   142  132  142 1   
   143  133  134 1   
   144  134  143 1   
   145  144  145 1   
   146  144  153 1   
   147  145  146 1   
   148  145  148 1   
   149  145  154 1   
   150  146  147 2   
   151  146  159 1   
   152  148  149 1   
   153  148  155 1   
   154  148  156 1   
   155  149  150 1   
   156  149  157 1   
   157  149  158 1   
   158  150  151 1   
   159  150  152 1   
   160  159  160 1   
   161  159  168 1   
   162  160  161 1   
   163  160  163 1   
   164  160  169 1   
   165  161  162 2   
   166  161  174 1   
   167  163  164 1   
   168  163  170 1   
   169  163  171 1   
   170  164  165 1   
   171  164  172 1   
   172  164  173 1   
   173  165  166 1   
   174  165  167 1   
   175  174  175 1   
   176  174  179 1   
   177  175  176 1   
   178  175  177 1   
   179  175  178 1   
   180  181  182 1   
   181  181  183 1   
   182  184  185 1   
   183  184  186 1   
   184  187  188 1   
   185  187  189 1   
   186  190  191 1   
   187  190  192 1   
   188  193  194 1   
   189  193  195 1   
@<TRIPOS>SUBSTRUCTURE
     1 MOL         1 TEMP              0 ****  ****    0 ROOT
