@<TRIPOS>MOLECULE
MOL
  182   178     1     0     0
SMALL
resp


@<TRIPOS>ATOM
      1 C1          1.5440   -4.6990    6.2090 c3        1 MOL     -0.267126
      2 C2          1.5980   -4.1820    4.7340 c         1 MOL      0.763255
      3 O1          0.5740   -4.3100    4.1120 o         1 MOL     -0.578511
      4 H1          0.5250   -4.6170    6.5860 hc        1 MOL      0.066159
      5 H2          1.8590   -5.7420    6.2400 hc        1 MOL      0.066159
      6 H3          2.2100   -4.0990    6.8290 hc        1 MOL      0.066159
      7 N1          2.7230   -3.6730    4.2250 n         1 MOL     -0.635137
      8 C3          2.8640   -3.2470    2.8780 c3        1 MOL      0.017448
      9 C4          3.1650   -4.3360    1.8610 c         1 MOL      0.702969
     10 O2          4.1190   -5.0680    2.0190 o         1 MOL     -0.572879
     11 C5          3.8820   -2.0900    2.8490 c3        1 MOL      0.086799
     12 C6          3.7730   -1.2820    1.5530 c         1 MOL      0.557249
     13 O3          4.3270   -0.1890    1.4210 o         1 MOL     -0.676041
     14 O4          3.0050   -1.6790    0.7060 o         1 MOL     -0.676041
     15 H4          3.5890   -3.6440    4.7460 hn        1 MOL      0.331195
     16 H5          1.8640   -2.8970    2.6350 h1        1 MOL     -0.122569
     17 H6          4.8940   -2.4500    3.0180 hc        1 MOL     -0.002065
     18 H7          3.5870   -1.3620    3.6010 hc        1 MOL     -0.002065
     19 N2          2.3750   -4.4340    0.7590 n         1 MOL     -0.422138
     20 C7          2.5710   -5.3990   -0.3320 c3        1 MOL      0.009124
     21 C8          3.8670   -5.1530   -1.1070 c         1 MOL      0.472970
     22 O5          4.2550   -6.0700   -1.8090 o         1 MOL     -0.539109
     23 C9          1.4060   -5.3540   -1.3650 c3        1 MOL     -0.115856
     24 C10         0.1150   -5.3020   -0.6140 c3        1 MOL      0.151341
     25 C11        -1.1580   -5.6690   -1.4230 c3        1 MOL     -0.194849
     26 C12        -1.4550   -4.7460   -2.6130 c3        1 MOL      0.157069
     27 N3         -2.7950   -4.8680   -3.1730 n4        1 MOL     -0.291230
     28 H8          1.6230   -3.7680    0.7160 hn        1 MOL      0.171546
     29 H9          2.6160   -6.4140    0.0610 h1        1 MOL      0.102692
     30 H10         1.4810   -6.2620   -1.9570 hc        1 MOL      0.045190
     31 H11         1.4440   -4.4610   -1.9860 hc        1 MOL      0.045190
     32 H12         0.0390   -4.3200   -0.1530 hc        1 MOL      0.005607
     33 H13         0.1710   -6.0430    0.1870 hc        1 MOL      0.005607
     34 H14        -2.0080   -5.4990   -0.7680 hc        1 MOL      0.069481
     35 H15        -0.9840   -6.7000   -1.7520 hc        1 MOL      0.069481
     36 H16        -0.7330   -4.7980   -3.4270 hx        1 MOL      0.027369
     37 H17        -1.2420   -3.7160   -2.3170 hx        1 MOL      0.027369
     38 H18        -3.2570   -5.7580   -3.1060 hn        1 MOL      0.265542
     39 H19        -3.3900   -4.2080   -2.7000 hn        1 MOL      0.265542
     40 H20        -2.8770   -4.5980   -4.1530 hn        1 MOL      0.265542
     41 N4          4.4900   -3.9420   -1.0390 n         1 MOL     -0.310849
     42 C13         5.8060   -3.6080   -1.6350 c3        1 MOL     -0.002269
     43 C14         6.8070   -2.8650   -0.7730 c         1 MOL      0.419995
     44 O6          8.0040   -3.1120   -0.9360 o         1 MOL     -0.533306
     45 C15         5.5420   -2.8380   -2.8920 c3        1 MOL     -0.174249
     46 C16         4.7150   -1.5650   -2.8560 c         1 MOL      0.589086
     47 O7          4.5700   -0.9280   -1.7710 o         1 MOL     -0.666619
     48 O8          4.2630   -1.2150   -3.9830 o         1 MOL     -0.666619
     49 H21         4.1200   -3.1990   -0.4550 hn        1 MOL      0.320502
     50 H22         6.3640   -4.4850   -1.9470 h1        1 MOL      0.116459
     51 H23         5.2530   -3.4560   -3.7370 hc        1 MOL      0.095178
     52 H24         6.4960   -2.5320   -3.3240 hc        1 MOL      0.095178
     53 N5          6.4350   -1.9400    0.1160 n         1 MOL      0.007155
     54 C17         7.4070   -1.1020    0.8850 c3        1 MOL     -0.166762
     55 C18         7.5200    0.3480    0.4110 c         1 MOL      0.586173
     56 O9          8.2980    1.1140    0.9760 o         1 MOL     -0.564694
     57 H25         5.4640   -1.6680    0.0930 hn        1 MOL     -0.218715
     58 H26         8.3410   -1.6660    0.9700 h1        1 MOL      0.115500
     59 H27         7.0730   -1.0710    1.9240 h1        1 MOL      0.115500
     60 N6          6.7560    0.8000   -0.6810 n         1 MOL     -0.186013
     61 C19         6.9900    2.0780   -1.3440 c3        1 MOL     -0.063244
     62 C20         5.6820    2.9550   -1.1920 c         1 MOL      0.591896
     63 O10         4.6140    2.3570   -1.1030 o         1 MOL     -0.548484
     64 C21         7.2440    1.8250   -2.8480 c3        1 MOL     -0.373880
     65 C22         8.4840    0.9010   -3.0630 c         1 MOL      0.572611
     66 N7          9.6330    1.4820   -2.9670 n         1 MOL     -0.633075
     67 O11         8.3300   -0.2950   -3.2640 o         1 MOL     -0.485759
     68 H28         6.1360    0.1290   -1.1080 hn        1 MOL      0.267952
     69 H29         7.8390    2.5780   -0.8630 h1        1 MOL      0.066625
     70 H30         7.3920    2.7160   -3.4620 hc        1 MOL      0.108581
     71 H31         6.3140    1.4130   -3.2590 hc        1 MOL      0.108581
     72 H32         9.5060    2.4840   -2.9140 hn        1 MOL      0.328723
     73 H33        10.4910    1.1090   -3.3540 hn        1 MOL      0.328723
     74 N8          5.6860    4.2970   -1.1960 n         1 MOL     -0.465002
     75 C23         4.4780    5.1390   -1.1160 c3        1 MOL     -0.019122
     76 C24         3.6480    5.0220    0.1630 c         1 MOL      0.518029
     77 O12         4.0290    4.6820    1.2690 o         1 MOL     -0.465779
     78 H34         6.5730    4.7840   -1.2280 hn        1 MOL      0.311662
     79 H35         3.8650    4.9620   -1.9950 h1        1 MOL      0.076145
     80 H36         4.7510    6.1870   -1.2220 h1        1 MOL      0.076145
     81 N9          2.3370    5.1810    0.0780 n         1 MOL     -0.471286
     82 C25         1.2830    4.8100    0.9850 c3        1 MOL      0.087946
     83 C26         1.3300    3.3620    1.4580 c         1 MOL      0.600139
     84 O13         2.1580    2.5480    0.9760 o         1 MOL     -0.520758
     85 C27        -0.0780    5.2390    0.5160 c3        1 MOL     -0.164270
     86 C28        -0.2070    6.7650    0.3920 ca        1 MOL      0.065996
     87 C29        -0.1520    7.6090    1.5000 ca        1 MOL     -0.129927
     88 C30        -0.7300    7.2850   -0.8390 ca        1 MOL     -0.129927
     89 C31        -0.3250    8.9850    1.3690 ca        1 MOL     -0.291852
     90 C32        -0.9590    8.6470   -1.0240 ca        1 MOL     -0.291852
     91 C33        -0.7690    9.4870    0.0940 ca        1 MOL      0.336962
     92 O14        -0.9260   10.7660   -0.1440 oh        1 MOL     -0.419179
     93 H37         1.9780    5.6860   -0.7270 hn        1 MOL      0.240977
     94 H38         1.3780    5.3260    1.9360 h1        1 MOL      0.065456
     95 H39        -0.8140    4.9280    1.2600 hc        1 MOL      0.053117
     96 H40        -0.3460    4.7870   -0.4360 hc        1 MOL      0.053117
     97 H41        -0.0360    7.2140    2.4880 ha        1 MOL      0.120399
     98 H42        -1.0400    6.5110   -1.5320 ha        1 MOL      0.120399
     99 H43        -0.2540    9.6460    2.2270 ha        1 MOL      0.174711
    100 H44        -1.2720    9.0250   -1.9920 ha        1 MOL      0.174711
    101 H45        -0.8430   11.1750    0.7230 ho        1 MOL      0.348051
    102 N10         0.6150    2.9910    2.5310 n         1 MOL     -0.586676
    103 C34         0.2270    1.6110    2.8810 c3        1 MOL      0.033467
    104 C35        -0.2220    0.6540    1.7510 c         1 MOL      0.167361
    105 O15         0.6440    0.0810    1.0420 o         1 MOL     -0.176497
    106 C36         1.2640    0.9320    3.7930 c3        1 MOL      0.583673
    107 C37         0.6070   -0.3530    4.4110 c3        1 MOL      0.020400
    108 C38         1.8900    1.8570    4.8460 c3        1 MOL     -0.444019
    109 C39        -0.6910   -0.2620    5.2420 c3        1 MOL     -0.081639
    110 H46         0.0810    3.6990    3.0270 hn        1 MOL      0.330091
    111 H47        -0.7110    1.7220    3.4170 h1        1 MOL      0.018652
    112 H48         1.9390    0.6350    2.9980 hc        1 MOL     -0.113510
    113 H49         1.3310   -0.6480    5.1690 hc        1 MOL      0.007440
    114 H50         0.4890   -1.1540    3.6840 hc        1 MOL      0.007440
    115 H51         2.5310    2.6160    4.3950 hc        1 MOL      0.097424
    116 H52         1.1400    2.4430    5.3800 hc        1 MOL      0.097424
    117 H53         2.5180    1.2330    5.4740 hc        1 MOL      0.097424
    118 H54        -1.5690   -0.2420    4.5920 hc        1 MOL      0.003787
    119 H55        -0.6800   -1.0670    5.9740 hc        1 MOL      0.003787
    120 H56        -0.6440    0.7410    5.6750 hc        1 MOL      0.003787
    121 N11        -1.4520    0.0890    1.7930 n         1 MOL     -0.309355
    122 C40        -1.8450   -1.0130    0.8230 c3        1 MOL      0.076908
    123 C41        -3.3600   -1.0920    0.5900 c         1 MOL      0.570772
    124 O16        -4.0000   -1.9780    1.1850 o         1 MOL     -0.503194
    125 C42        -1.3730   -2.3480    1.4800 c3        1 MOL     -0.202556
    126 O17         0.0020   -2.4310    1.1600 oh        1 MOL     -0.186099
    127 H57        -2.1770    0.4520    2.4070 hn        1 MOL      0.310203
    128 H58        -1.3640   -0.9040   -0.1460 h1        1 MOL      0.048530
    129 H59        -1.8950   -3.2200    1.0740 h1        1 MOL      0.122399
    130 H60        -1.4980   -2.1880    2.5470 h1        1 MOL      0.122399
    131 H61         0.3830   -1.5550    1.2180 ho        1 MOL      0.164887
    132 N12        -3.9490   -0.0760   -0.0450 n         1 MOL     -0.862699
    133 C43        -5.3430   -0.0560   -0.4990 c3        1 MOL      0.631707
    134 C44        -5.3780   -0.2880   -2.0240 c         1 MOL      0.423627
    135 O18        -4.3060   -0.2600   -2.6650 o         1 MOL     -0.570067
    136 C45        -5.9630    1.2990   -0.1580 c3        1 MOL     -0.170160
    137 H62        -3.3540    0.6370   -0.4370 hn        1 MOL      0.362570
    138 H63        -5.9430   -0.8690   -0.0680 h1        1 MOL     -0.008854
    139 H64        -7.0260    1.2430   -0.3810 hc        1 MOL      0.037844
    140 H65        -5.9510    1.6170    0.8850 hc        1 MOL      0.037844
    141 H66        -5.4700    2.0720   -0.7490 hc        1 MOL      0.037844
    142 N13        -6.5420   -0.4070   -2.7090 n         1 MOL     -0.629865
    143 C46        -7.7950   -0.7980   -2.1540 c3        1 MOL      0.352552
    144 C47        -9.0070   -0.0440   -2.7010 c         1 MOL      0.572863
    145 O19        -8.8270    0.6980   -3.6490 o         1 MOL     -0.555955
    146 C48        -7.8430   -2.3340   -2.4450 c3        1 MOL     -0.420362
    147 H67        -6.4050   -0.3250   -3.7070 hn        1 MOL      0.368670
    148 H68        -7.8650   -0.6060   -1.0880 h1        1 MOL     -0.041206
    149 H69        -7.7280   -2.3850   -3.5250 hc        1 MOL      0.113334
    150 H70        -7.0220   -2.8410   -1.9390 hc        1 MOL      0.113334
    151 H71        -8.7560   -2.8470   -2.1690 hc        1 MOL      0.113334
    152 N14       -10.1620   -0.0850   -2.0220 n         1 MOL     -0.662467
    153 C49       -10.5320   -0.6770   -0.6900 c3        1 MOL      0.145068
    154 C50       -10.0600    0.2730    0.4550 c         1 MOL      0.423319
    155 O20        -9.4410   -0.2680    1.3420 o         1 MOL     -0.527740
    156 C51       -12.0350   -0.8020   -0.7700 c3        1 MOL      0.155181
    157 C52       -12.7960   -1.3110    0.4590 c3        1 MOL     -0.248827
    158 C53       -14.2990   -1.3990    0.1520 c         1 MOL      0.681831
    159 O21       -14.7500   -2.4100   -0.4590 o         1 MOL     -0.651016
    160 O22       -14.9960   -0.4180    0.4710 o         1 MOL     -0.651016
    161 H72       -10.8830    0.5160   -2.3990 hn        1 MOL      0.323756
    162 H73       -10.0330   -1.6370   -0.5700 h1        1 MOL      0.069523
    163 H74       -12.2340   -1.5320   -1.5530 hc        1 MOL     -0.019349
    164 H75       -12.4050    0.2120   -0.9500 hc        1 MOL     -0.019349
    165 H76       -12.8070   -0.5130    1.2050 hc        1 MOL      0.034677
    166 H77       -12.2160   -2.1450    0.8560 hc        1 MOL      0.034677
    167 N15       -10.2690    1.5660    0.3510 n         1 MOL     -0.178936
    168 C54        -9.7300    2.5000    1.3020 c3        1 MOL     -0.482465
    169 H78       -10.1010    2.2600    2.2970 h1        1 MOL      0.178310
    170 H79        -8.6410    2.4380    1.2960 h1        1 MOL      0.178310
    171 H80       -10.0390    3.5110    1.0340 h1        1 MOL      0.178310
    172 H81       -10.8300    1.8060   -0.4500 hn        1 MOL      0.248904
    173 Ca1         2.6060    0.4010   -0.8280 Ca        1 MOL      1.749632
    174 O23         3.1340    1.1010   -3.3330 oh        1 MOL     -0.907381
    175 H82         3.7010    0.4150   -3.6720 ho        1 MOL      0.426237
    176 H83         2.8660    1.5970   -4.1050 ho        1 MOL      0.426237
    177 O24         0.3400    1.7780   -1.4640 oh        1 MOL     -0.907381
    178 H84        -0.6080    1.7770   -1.5970 ho        1 MOL      0.426237
    179 H85         0.6490    2.5270   -1.9660 ho        1 MOL      0.426237
    180 O25         1.1410   -1.3290   -2.0400 oh        1 MOL     -0.907381
    181 H86         0.1950   -1.4840   -2.1030 ho        1 MOL      0.426237
    182 H87         1.4920   -1.6670   -2.8600 ho        1 MOL      0.426237
@<TRIPOS>BOND
     1    1    2 1   
     2    1    4 1   
     3    1    5 1   
     4    1    6 1   
     5    2    3 2   
     6    2    7 1   
     7    7    8 1   
     8    7   15 1   
     9    8    9 1   
    10    8   11 1   
    11    8   16 1   
    12    9   10 2   
    13    9   19 1   
    14   11   12 1   
    15   11   17 1   
    16   11   18 1   
    17   12   13 1   
    18   12   14 1   
    19   19   20 1   
    20   19   28 1   
    21   20   21 1   
    22   20   23 1   
    23   20   29 1   
    24   21   22 2   
    25   21   41 1   
    26   23   24 1   
    27   23   30 1   
    28   23   31 1   
    29   24   25 1   
    30   24   32 1   
    31   24   33 1   
    32   25   26 1   
    33   25   34 1   
    34   25   35 1   
    35   26   27 1   
    36   26   36 1   
    37   26   37 1   
    38   27   38 1   
    39   27   39 1   
    40   27   40 1   
    41   41   42 1   
    42   41   49 1   
    43   42   43 1   
    44   42   45 1   
    45   42   50 1   
    46   43   44 2   
    47   43   53 1   
    48   45   46 1   
    49   45   51 1   
    50   45   52 1   
    51   46   47 1   
    52   46   48 1   
    53   53   54 1   
    54   53   57 1   
    55   54   55 1   
    56   54   58 1   
    57   54   59 1   
    58   55   56 2   
    59   55   60 1   
    60   60   61 1   
    61   60   68 1   
    62   61   62 1   
    63   61   64 1   
    64   61   69 1   
    65   62   63 2   
    66   62   74 1   
    67   64   65 1   
    68   64   70 1   
    69   64   71 1   
    70   65   66 1   
    71   65   67 2   
    72   66   72 1   
    73   66   73 1   
    74   74   75 1   
    75   74   78 1   
    76   75   76 1   
    77   75   79 1   
    78   75   80 1   
    79   76   77 2   
    80   76   81 1   
    81   81   82 1   
    82   81   93 1   
    83   82   83 1   
    84   82   85 1   
    85   82   94 1   
    86   83   84 2   
    87   83  102 1   
    88   85   86 1   
    89   85   95 1   
    90   85   96 1   
    91   86   87 ar  
    92   86   88 ar  
    93   87   89 ar  
    94   87   97 1   
    95   88   90 ar  
    96   88   98 1   
    97   89   91 ar  
    98   89   99 1   
    99   90   91 ar  
   100   90  100 1   
   101   91   92 1   
   102   92  101 1   
   103  102  103 1   
   104  102  110 1   
   105  103  104 1   
   106  103  106 1   
   107  103  111 1   
   108  104  105 2   
   109  104  121 1   
   110  106  107 1   
   111  106  108 1   
   112  106  112 1   
   113  107  109 1   
   114  107  113 1   
   115  107  114 1   
   116  108  115 1   
   117  108  116 1   
   118  108  117 1   
   119  109  118 1   
   120  109  119 1   
   121  109  120 1   
   122  121  122 1   
   123  121  127 1   
   124  122  123 1   
   125  122  125 1   
   126  122  128 1   
   127  123  124 2   
   128  123  132 1   
   129  125  126 1   
   130  125  129 1   
   131  125  130 1   
   132  126  131 1   
   133  132  133 1   
   134  132  137 1   
   135  133  134 1   
   136  133  136 1   
   137  133  138 1   
   138  134  135 2   
   139  134  142 1   
   140  136  139 1   
   141  136  140 1   
   142  136  141 1   
   143  142  143 1   
   144  142  147 1   
   145  143  144 1   
   146  143  146 1   
   147  143  148 1   
   148  144  145 2   
   149  144  152 1   
   150  146  149 1   
   151  146  150 1   
   152  146  151 1   
   153  152  153 1   
   154  152  161 1   
   155  153  154 1   
   156  153  156 1   
   157  153  162 1   
   158  154  155 2   
   159  154  167 1   
   160  156  157 1   
   161  156  163 1   
   162  156  164 1   
   163  157  158 1   
   164  157  165 1   
   165  157  166 1   
   166  158  159 1   
   167  158  160 1   
   168  167  168 1   
   169  167  172 1   
   170  168  169 1   
   171  168  170 1   
   172  168  171 1   
   173  174  175 1   
   174  174  176 1   
   175  177  178 1   
   176  177  179 1   
   177  180  181 1   
   178  180  182 1   
@<TRIPOS>SUBSTRUCTURE
     1 MOL         1 TEMP              0 ****  ****    0 ROOT
