@<TRIPOS>MOLECULE
MOL
  175   173     1     0     0
SMALL
resp


@<TRIPOS>ATOM
      1 C1         -6.1450    7.8030    1.1040 c3        1 MOL     -0.412459
      2 C2         -7.3650    7.1540    0.4480 c         1 MOL      0.680843
      3 O1         -7.6890    7.5900   -0.6780 o         1 MOL     -0.593438
      4 H1         -5.9950    7.3730    2.0950 hc        1 MOL      0.096849
      5 H2         -5.2630    7.6210    0.4910 hc        1 MOL      0.096849
      6 H3         -6.3090    8.8760    1.1960 hc        1 MOL      0.096849
      7 N1         -7.9860    6.0920    0.9830 n         1 MOL     -0.470636
      8 C3         -8.9570    5.2420    0.2070 c3        1 MOL      0.134936
      9 C4         -8.2730    4.0270   -0.5480 c         1 MOL      0.492196
     10 O2         -8.7600    3.6170   -1.5920 o         1 MOL     -0.539718
     11 C5        -10.0980    4.7710    1.1090 c3        1 MOL     -0.092713
     12 C6        -10.9590    5.7980    1.7780 c         1 MOL      0.645852
     13 O3        -10.7960    6.9940    1.4480 o         1 MOL     -0.716879
     14 O4        -11.8830    5.4300    2.5550 o         1 MOL     -0.716879
     15 H4         -7.7570    5.7500    1.9000 hn        1 MOL      0.284333
     16 H5         -9.4520    5.9230   -0.4800 h1        1 MOL      0.083082
     17 H6         -9.7590    4.0480    1.8480 hc        1 MOL     -0.009012
     18 H7        -10.6990    4.1420    0.4450 hc        1 MOL     -0.009012
     19 N2         -7.0600    3.5700   -0.0780 n         1 MOL     -0.537671
     20 C7         -6.3400    2.5520   -0.8580 c3        1 MOL      0.305052
     21 C8         -5.1190    1.9650   -0.0410 c         1 MOL      0.408070
     22 O5         -4.6460    2.5730    0.9260 o         1 MOL     -0.501866
     23 C9         -5.7390    3.1830   -2.1060 c3        1 MOL     -0.337784
     24 H8         -6.5780    3.9270    0.7330 hn        1 MOL      0.259753
     25 H9         -7.0360    1.7650   -1.1430 h1        1 MOL      0.008764
     26 H10        -6.4990    3.4780   -2.8410 hc        1 MOL      0.108689
     27 H11        -5.1940    4.0590   -1.7650 hc        1 MOL      0.108689
     28 H12        -5.0290    2.5030   -2.5820 hc        1 MOL      0.108689
     29 N3         -4.5930    0.7660   -0.3680 n         1 MOL     -0.330811
     30 C10        -5.0180   -0.1720   -1.4680 c3        1 MOL     -0.173113
     31 C11        -5.2520   -1.5530   -0.7830 c         1 MOL      0.494926
     32 O6         -4.6480   -1.8140    0.2770 o         1 MOL     -0.512892
     33 C12        -4.1030   -0.2180   -2.6490 c3        1 MOL      0.015392
     34 C13        -2.6990   -0.5460   -2.2710 c         1 MOL      0.669928
     35 O7         -1.8320    0.3550   -1.9900 o         1 MOL     -0.715487
     36 O8         -2.1660   -1.6800   -2.5400 o         1 MOL     -0.715487
     37 H13        -3.8540    0.3870    0.2150 hn        1 MOL      0.276428
     38 H14        -5.9680    0.1130   -1.9250 h1        1 MOL      0.086923
     39 H15        -4.0800    0.6920   -3.2450 hc        1 MOL      0.004485
     40 H16        -4.4160   -1.0240   -3.3160 hc        1 MOL      0.004485
     41 N4         -6.0620   -2.4030   -1.4450 n         1 MOL     -0.384787
     42 C14        -6.5130   -3.7350   -1.0110 c3        1 MOL      0.034465
     43 C15        -6.3160   -4.8550   -2.0550 c         1 MOL      0.540096
     44 O9         -7.2880   -5.1500   -2.7350 o         1 MOL     -0.538433
     45 H17        -6.4850   -2.0180   -2.2710 hn        1 MOL      0.307507
     46 H18        -7.5920   -3.7310   -0.9550 h1        1 MOL      0.053561
     47 H19        -6.1100   -3.9350   -0.0270 h1        1 MOL      0.053561
     48 N5         -5.1150   -5.4720   -2.2520 n         1 MOL     -0.558939
     49 C16        -3.8810   -5.1620   -1.4690 c3        1 MOL      0.164224
     50 C17        -3.9210   -5.5860   -0.0600 c         1 MOL      0.507168
     51 O10        -4.2730   -6.7210    0.2480 o         1 MOL     -0.571274
     52 C18        -2.6650   -5.6490   -2.3560 c3        1 MOL     -0.108100
     53 C19        -1.2750   -5.0630   -1.9580 c         1 MOL      0.521744
     54 N6         -0.2000   -5.5270   -2.5180 n         1 MOL     -0.643953
     55 O11        -1.1200   -4.1470   -1.1470 o         1 MOL     -0.616917
     56 H20        -5.1650   -6.1630   -2.9850 hn        1 MOL      0.322574
     57 H21        -3.7380   -4.0750   -1.4790 h1        1 MOL      0.008594
     58 H22        -2.8410   -5.3240   -3.3840 hc        1 MOL      0.056243
     59 H23        -2.5690   -6.7330   -2.3390 hc        1 MOL      0.056243
     60 H24        -0.2210   -6.2930   -3.1790 hn        1 MOL      0.329030
     61 H25         0.6800   -5.1400   -2.2110 hn        1 MOL      0.329030
     62 N7         -3.6050   -4.6820    0.8770 n         1 MOL     -0.031862
     63 C20        -3.7510   -4.9220    2.2840 c3        1 MOL     -0.331698
     64 C21        -2.4190   -4.9810    3.0180 c         1 MOL      0.588239
     65 O12        -2.3950   -5.2630    4.2270 o         1 MOL     -0.561430
     66 H26        -3.4390   -3.7450    0.5440 hn        1 MOL      0.182897
     67 H27        -4.2050   -5.8730    2.5700 h1        1 MOL      0.134064
     68 H28        -4.3550   -4.1580    2.7770 h1        1 MOL      0.134064
     69 N8         -1.3120   -4.7410    2.2460 n         1 MOL     -0.356401
     70 C22         0.0650   -4.8780    2.6270 c3        1 MOL     -0.100193
     71 C23         0.9170   -3.7170    2.2040 c         1 MOL      0.642316
     72 O13         0.5100   -2.9940    1.2880 o         1 MOL     -0.583845
     73 C24         0.5350   -6.2620    2.0440 c3        1 MOL      0.570553
     74 C25        -0.2970   -7.3930    2.6740 c3        1 MOL     -0.421982
     75 O14         0.5630   -6.4160    0.6280 oh        1 MOL     -0.645386
     76 H29        -1.5530   -4.5940    1.2680 hn        1 MOL      0.158512
     77 H30         0.0550   -5.0410    3.7090 h1        1 MOL      0.054183
     78 H31         1.5690   -6.3280    2.3910 h1        1 MOL     -0.088449
     79 H32         0.9110   -5.6570    0.1600 ho        1 MOL      0.403255
     80 H33         0.1440   -8.3370    2.3640 hc        1 MOL      0.107796
     81 H34        -0.0820   -7.3330    3.7460 hc        1 MOL      0.107796
     82 H35        -1.3360   -7.1930    2.3780 hc        1 MOL      0.107796
     83 N9          2.0540   -3.4370    2.8360 n         1 MOL     -0.540177
     84 C26         2.9570   -2.3640    2.4600 c3        1 MOL      0.072019
     85 C27         3.9830   -2.8640    1.3920 c         1 MOL      0.501007
     86 O15         4.7880   -3.7430    1.6730 o         1 MOL     -0.561618
     87 C28         3.8470   -1.9110    3.7260 c3        1 MOL      0.167709
     88 C29         4.8260   -0.7390    3.4310 c3        1 MOL     -0.137761
     89 C30         2.9880   -1.6010    4.9430 c3        1 MOL     -0.562531
     90 C31         4.1470    0.4940    2.9580 c3        1 MOL      0.043614
     91 H36         2.3870   -4.1250    3.5000 hn        1 MOL      0.302371
     92 H37         2.4010   -1.4850    2.1370 h1        1 MOL      0.152413
     93 H38         4.4310   -2.7720    4.0430 hc        1 MOL      0.007135
     94 H39         5.5860   -0.9920    2.6810 hc        1 MOL      0.025599
     95 H40         5.3610   -0.4630    4.3500 hc        1 MOL      0.025599
     96 H41         3.6010   -1.0190    5.6230 hc        1 MOL      0.147861
     97 H42         2.1330   -1.0040    4.6490 hc        1 MOL      0.147861
     98 H43         2.7180   -2.5490    5.4090 hc        1 MOL      0.147861
     99 H44         3.6100    0.3320    2.0210 hc        1 MOL     -0.027529
    100 H45         3.3830    0.8150    3.6720 hc        1 MOL     -0.027529
    101 H46         4.8130    1.3290    2.7430 hc        1 MOL     -0.027529
    102 N10         4.0390   -2.1760    0.2240 n         1 MOL     -0.197806
    103 C32         4.9250   -2.4620   -0.9270 c3        1 MOL      0.003767
    104 C33         5.8470   -1.3350   -1.3750 c         1 MOL      0.607811
    105 O16         6.7160   -1.6080   -2.2230 o         1 MOL     -0.564974
    106 C34         3.9670   -3.0260   -2.0370 c3        1 MOL     -0.171027
    107 C35         2.8560   -4.0160   -1.6470 c         1 MOL      0.698494
    108 O17         3.1660   -5.2070   -1.3850 o         1 MOL     -0.677518
    109 O18         1.7260   -3.5960   -1.5960 o         1 MOL     -0.677518
    110 H47         3.2090   -1.6400    0.0110 hn        1 MOL      0.042713
    111 H48         5.6620   -3.2170   -0.6680 h1        1 MOL      0.091836
    112 H49         4.5280   -3.4760   -2.8650 hc        1 MOL      0.026335
    113 H50         3.4430   -2.1830   -2.4940 hc        1 MOL      0.026335
    114 N11         5.8120   -0.1100   -0.7750 n         1 MOL     -0.615566
    115 C36         6.8690    0.9070   -1.0250 c3        1 MOL      0.241873
    116 C37         6.3370    2.2560   -0.6980 c         1 MOL      0.328694
    117 O19         5.8710    2.3610    0.4180 o         1 MOL     -0.455284
    118 C38         8.0850    0.6280   -0.0540 c3        1 MOL     -0.295851
    119 C39         9.1590    1.7390    0.0520 ca        1 MOL      0.106574
    120 C40         9.3750    2.3610    1.2830 ca        1 MOL     -0.132380
    121 C41         9.7910    2.2090   -1.1280 ca        1 MOL     -0.132380
    122 C42        10.2420    3.4090    1.3810 ca        1 MOL     -0.152875
    123 C43        10.7430    3.2350   -1.0310 ca        1 MOL     -0.152875
    124 C44        11.0150    3.8100    0.2960 ca        1 MOL     -0.086436
    125 H51         5.1320    0.1150   -0.0690 hn        1 MOL      0.419406
    126 H52         7.1980    0.7810   -2.0540 h1        1 MOL      0.044708
    127 H53         8.6190   -0.2590   -0.3690 hc        1 MOL      0.112044
    128 H54         7.6760    0.3250    0.9150 hc        1 MOL      0.112044
    129 H55         8.8560    1.9720    2.1430 ha        1 MOL      0.121846
    130 H56         9.5160    1.7910   -2.0880 ha        1 MOL      0.121846
    131 H57        10.4280    3.8770    2.3400 ha        1 MOL      0.118211
    132 H58        11.1020    3.7020   -1.9290 ha        1 MOL      0.118211
    133 H59        11.7300    4.6100    0.3900 ha        1 MOL      0.097163
    134 N12         6.4090    3.3130   -1.5690 n         1 MOL     -0.067078
    135 C45         6.2580    4.6460   -1.0000 c3        1 MOL      0.035044
    136 C46         4.8160    5.0460   -0.5620 c         1 MOL      0.248441
    137 O20         4.5400    6.2480   -0.1740 o         1 MOL     -0.532150
    138 C47         6.6860    5.5240   -2.1450 c3        1 MOL     -0.127470
    139 C48         7.5400    4.6470   -3.1120 c3        1 MOL      0.121141
    140 C49         6.8500    3.3310   -2.9320 c3        1 MOL     -0.364500
    141 H60         7.0270    4.6350   -0.2300 h1        1 MOL      0.097939
    142 H61         5.8020    5.8080   -2.7210 hc        1 MOL      0.074608
    143 H62         7.1570    6.4530   -1.8130 hc        1 MOL      0.074608
    144 H63         7.5490    5.1450   -4.0820 hc        1 MOL     -0.001558
    145 H64         8.5250    4.6790   -2.6380 hc        1 MOL     -0.001558
    146 H65         6.0410    3.3300   -3.6690 h1        1 MOL      0.141001
    147 H66         7.6050    2.5880   -3.1610 h1        1 MOL      0.141001
    148 N13         3.9050    4.1200   -0.5850 n         1 MOL     -0.088883
    149 C50         2.4800    4.3360   -0.2960 c3        1 MOL     -0.132108
    150 C51         2.2600    4.8560    1.1290 c         1 MOL      0.392485
    151 O21         1.1070    5.0880    1.5860 o         1 MOL     -0.520817
    152 C52         1.6240    3.0950   -0.3900 c3        1 MOL     -0.254338
    153 C53         2.1480    2.0390    0.6120 c3        1 MOL     -0.231394
    154 C54         1.5620    0.6600    0.1930 c         1 MOL      0.788017
    155 O22         2.1450   -0.1110   -0.6410 o         1 MOL     -0.755384
    156 O23         0.4420    0.2640    0.5740 o         1 MOL     -0.755384
    157 H67         4.2000    3.2030   -0.8860 hn        1 MOL      0.176232
    158 H68         2.0310    4.9660   -1.0610 h1        1 MOL      0.139707
    159 H69         1.7420    2.6370   -1.3790 hc        1 MOL      0.154235
    160 H70         0.5990    3.2490   -0.0660 hc        1 MOL      0.154235
    161 H71         1.8240    2.1730    1.6420 hc        1 MOL      0.086276
    162 H72         3.2330    2.0000    0.6310 hc        1 MOL      0.086276
    163 N14         3.2660    4.8230    1.9390 n         1 MOL     -0.054386
    164 C55         3.3120    5.2550    3.3520 c3        1 MOL     -0.207382
    165 H73         3.0730    4.4100    3.9980 h1        1 MOL      0.091515
    166 H74         4.3120    5.6190    3.5880 h1        1 MOL      0.091515
    167 H75         2.5860    6.0520    3.5130 h1        1 MOL      0.091515
    168 H76         4.1760    4.5420    1.6100 hn        1 MOL      0.191251
    169 Ca1        -0.0470   -1.6440   -1.1570 Ca        1 MOL      1.754857
    170 O24         0.6290   -0.6650   -3.4650 oh        1 MOL     -0.839871
    171 H77         0.6460   -1.2400   -4.2330 ho        1 MOL      0.410091
    172 H78         0.5880    0.2220   -3.8170 ho        1 MOL      0.410091
    173 O25        -2.0540   -1.2310    0.5760 oh        1 MOL     -0.839871
    174 H79        -1.6750   -0.7060    1.2740 ho        1 MOL      0.410091
    175 H80        -2.9410   -1.4300    0.8890 ho        1 MOL      0.410091
@<TRIPOS>BOND
     1    1    2 1   
     2    1    4 1   
     3    1    5 1   
     4    1    6 1   
     5    2    3 2   
     6    2    7 1   
     7    7    8 1   
     8    7   15 1   
     9    8    9 1   
    10    8   11 1   
    11    8   16 1   
    12    9   10 2   
    13    9   19 1   
    14   11   12 1   
    15   11   17 1   
    16   11   18 1   
    17   12   13 1   
    18   12   14 1   
    19   19   20 1   
    20   19   24 1   
    21   20   21 1   
    22   20   23 1   
    23   20   25 1   
    24   21   22 2   
    25   21   29 1   
    26   23   26 1   
    27   23   27 1   
    28   23   28 1   
    29   29   30 1   
    30   29   37 1   
    31   30   31 1   
    32   30   33 1   
    33   30   38 1   
    34   31   32 2   
    35   31   41 1   
    36   33   34 1   
    37   33   39 1   
    38   33   40 1   
    39   34   35 1   
    40   34   36 1   
    41   41   42 1   
    42   41   45 1   
    43   42   43 1   
    44   42   46 1   
    45   42   47 1   
    46   43   44 2   
    47   43   48 1   
    48   48   49 1   
    49   48   56 1   
    50   49   50 1   
    51   49   52 1   
    52   49   57 1   
    53   50   51 2   
    54   50   62 1   
    55   52   53 1   
    56   52   58 1   
    57   52   59 1   
    58   53   54 1   
    59   53   55 2   
    60   54   60 1   
    61   54   61 1   
    62   62   63 1   
    63   62   66 1   
    64   63   64 1   
    65   63   67 1   
    66   63   68 1   
    67   64   65 2   
    68   64   69 1   
    69   69   70 1   
    70   69   76 1   
    71   70   71 1   
    72   70   73 1   
    73   70   77 1   
    74   71   72 2   
    75   71   83 1   
    76   73   74 1   
    77   73   75 1   
    78   73   78 1   
    79   74   80 1   
    80   74   81 1   
    81   74   82 1   
    82   75   79 1   
    83   83   84 1   
    84   83   91 1   
    85   84   85 1   
    86   84   87 1   
    87   84   92 1   
    88   85   86 2   
    89   85  102 1   
    90   87   88 1   
    91   87   89 1   
    92   87   93 1   
    93   88   90 1   
    94   88   94 1   
    95   88   95 1   
    96   89   96 1   
    97   89   97 1   
    98   89   98 1   
    99   90   99 1   
   100   90  100 1   
   101   90  101 1   
   102  102  103 1   
   103  102  110 1   
   104  103  104 1   
   105  103  106 1   
   106  103  111 1   
   107  104  105 2   
   108  104  114 1   
   109  106  107 1   
   110  106  112 1   
   111  106  113 1   
   112  107  108 1   
   113  107  109 1   
   114  114  115 1   
   115  114  125 1   
   116  115  116 1   
   117  115  118 1   
   118  115  126 1   
   119  116  117 2   
   120  116  134 1   
   121  118  119 1   
   122  118  127 1   
   123  118  128 1   
   124  119  120 ar  
   125  119  121 ar  
   126  120  122 ar  
   127  120  129 1   
   128  121  123 ar  
   129  121  130 1   
   130  122  124 ar  
   131  122  131 1   
   132  123  124 ar  
   133  123  132 1   
   134  124  133 1   
   135  134  135 1   
   136  134  140 1   
   137  135  136 1   
   138  135  138 1   
   139  135  141 1   
   140  136  137 2   
   141  136  148 1   
   142  138  139 1   
   143  138  142 1   
   144  138  143 1   
   145  139  140 1   
   146  139  144 1   
   147  139  145 1   
   148  140  146 1   
   149  140  147 1   
   150  148  149 1   
   151  148  157 1   
   152  149  150 1   
   153  149  152 1   
   154  149  158 1   
   155  150  151 2   
   156  150  163 1   
   157  152  153 1   
   158  152  159 1   
   159  152  160 1   
   160  153  154 1   
   161  153  161 1   
   162  153  162 1   
   163  154  155 1   
   164  154  156 1   
   165  163  164 1   
   166  163  168 1   
   167  164  165 1   
   168  164  166 1   
   169  164  167 1   
   170  170  171 1   
   171  170  172 1   
   172  173  174 1   
   173  173  175 1   
@<TRIPOS>SUBSTRUCTURE
     1 MOL         1 TEMP              0 ****  ****    0 ROOT
