@<TRIPOS>MOLECULE
MOL
  189   185     1     0     0
SMALL
resp


@<TRIPOS>ATOM
      1 C1          9.5970    1.2160    1.0060 c3        1 MOL     -0.351115
      2 C2          8.2590    0.6380    0.4120 c         1 MOL      0.672174
      3 O1          7.2060    0.4220    1.0160 o         1 MOL     -0.633679
      4 H1         10.3980    0.4910    0.8700 hc        1 MOL      0.088019
      5 H2          9.8540    2.1420    0.4890 hc        1 MOL      0.088019
      6 H3          9.4660    1.4170    2.0690 hc        1 MOL      0.088019
      7 N1          8.3770    0.2410   -0.8370 n         1 MOL     -0.439770
      8 C3          7.2510   -0.0550   -1.7620 c3        1 MOL     -0.095020
      9 C4          6.7380   -1.4910   -1.5280 c         1 MOL      0.556545
     10 O2          6.3090   -2.1710   -2.3910 o         1 MOL     -0.442688
     11 C5          7.5500    0.2510   -3.2810 c3        1 MOL     -0.083729
     12 C6          8.8580   -0.3110   -3.7680 c         1 MOL      0.676493
     13 O3          9.0560   -0.0940   -4.9690 o         1 MOL     -0.651454
     14 O4          9.6330   -1.0000   -3.0630 o         1 MOL     -0.651454
     15 H4          9.3010    0.0980   -1.1910 hn        1 MOL      0.248374
     16 H5          6.4220    0.6050   -1.5110 h1        1 MOL      0.162212
     17 H6          7.4590    1.3370   -3.3360 hc        1 MOL      0.043188
     18 H7          6.6910   -0.1160   -3.8310 hc        1 MOL      0.043188
     19 N2          6.9000   -1.9790   -0.2560 n         1 MOL     -0.461659
     20 C7          6.5200   -3.3360    0.2810 c3        1 MOL      0.241210
     21 C8          5.0480   -3.6630   -0.1330 c         1 MOL      0.444310
     22 O5          4.7900   -4.8000   -0.5040 o         1 MOL     -0.524133
     23 C9          6.8410   -3.5400    1.8070 c3        1 MOL     -0.121141
     24 C10         8.3130   -3.2840    2.1880 c3        1 MOL     -0.080961
     25 C11         8.5630   -3.9870    3.5270 c3        1 MOL     -0.161475
     26 C12         9.9210   -3.9190    4.2040 c3        1 MOL      0.020369
     27 N3         10.9510   -4.6370    3.5060 n4        1 MOL     -0.308756
     28 H8          7.2840   -1.2820    0.3590 hn        1 MOL      0.107497
     29 H9          6.9940   -4.1380   -0.2910 h1        1 MOL      0.024716
     30 H10         6.6050   -4.5830    2.0410 hc        1 MOL      0.047950
     31 H11         6.2700   -2.9000    2.4860 hc        1 MOL      0.047950
     32 H12         8.3590   -2.2210    2.4310 hc        1 MOL      0.079745
     33 H13         8.9740   -3.6350    1.3930 hc        1 MOL      0.079745
     34 H14         8.3320   -5.0400    3.4050 hc        1 MOL      0.090864
     35 H15         7.8830   -3.4910    4.2130 hc        1 MOL      0.090864
     36 H16         9.8460   -4.2340    5.2450 hx        1 MOL      0.079815
     37 H17        10.1830   -2.8650    4.1870 hx        1 MOL      0.079815
     38 H18        11.8640   -4.4280    3.8920 hn        1 MOL      0.282612
     39 H19        10.7030   -5.6110    3.4740 hn        1 MOL      0.282612
     40 H20        11.0590   -4.2550    2.5710 hn        1 MOL      0.282612
     41 N4          4.0370   -2.7450    0.0390 n         1 MOL     -0.452038
     42 C13         4.0270   -1.3880    0.6050 c3        1 MOL      0.020193
     43 C14         3.8770   -0.2560   -0.3910 c         1 MOL      0.165383
     44 O6          3.8070   -0.4910   -1.5610 o         1 MOL     -0.374229
     45 C15         2.8950   -1.3370    1.6340 c3        1 MOL     -0.449045
     46 C16         1.5940   -1.8420    1.0210 c         1 MOL      0.828353
     47 O7          0.9700   -0.9500    0.4400 o         1 MOL     -0.698020
     48 O8          1.3710   -3.0660    0.9880 o         1 MOL     -0.698020
     49 H21         3.1210   -3.0430   -0.2740 hn        1 MOL      0.410974
     50 H22         4.9540   -1.1780    1.1540 h1        1 MOL      0.194595
     51 H23         2.7160   -0.4230    2.1970 hc        1 MOL      0.068255
     52 H24         3.2210   -2.0230    2.4240 hc        1 MOL      0.068255
     53 N5          3.9490    0.9720    0.1540 n         1 MOL     -0.113289
     54 C17         3.9150    2.2320   -0.5700 c3        1 MOL     -0.033414
     55 C18         2.5800    2.6080   -1.1720 c         1 MOL      0.611363
     56 O9          1.5070    2.1360   -0.6990 o         1 MOL     -0.602989
     57 H25         4.1020    1.0150    1.1540 hn        1 MOL      0.230801
     58 H26         4.6620    2.1130   -1.3490 h1        1 MOL      0.025947
     59 H27         4.2080    3.0230    0.1210 h1        1 MOL      0.025947
     60 N6          2.5650    3.6070   -2.1620 n         1 MOL     -0.527664
     61 C19         1.3720    4.3220   -2.7240 c3        1 MOL      0.184771
     62 C20         1.6330    5.8280   -2.8540 c         1 MOL      0.572219
     63 O10         2.7340    6.2920   -2.7280 o         1 MOL     -0.552393
     64 C21         0.9350    3.6600   -4.0550 c3        1 MOL     -0.472515
     65 C22         0.6470    2.2060   -3.7300 c         1 MOL      0.826445
     66 O11        -0.2950    1.9390   -3.0110 o         1 MOL     -0.708204
     67 O12         1.2950    1.2710   -4.1680 o         1 MOL     -0.708204
     68 H28         3.3650    3.8850   -2.7030 hn        1 MOL      0.323046
     69 H29         0.6320    4.2030   -1.9430 h1        1 MOL      0.067806
     70 H30         1.7930    3.7960   -4.7070 hc        1 MOL      0.129097
     71 H31         0.0350    4.1070   -4.4720 hc        1 MOL      0.129097
     72 N7          0.5750    6.6320   -2.8390 n         1 MOL     -0.563579
     73 C23        -0.8510    6.2720   -2.6450 c3        1 MOL     -0.003948
     74 C24        -1.0970    6.1250   -1.1310 c         1 MOL      0.638377
     75 O13        -0.2840    6.4270   -0.2920 o         1 MOL     -0.516579
     76 H32         0.7320    7.6360   -2.8180 hn        1 MOL      0.339803
     77 H33        -1.1660    5.3590   -3.1470 h1        1 MOL      0.064186
     78 H34        -1.4610    7.1190   -2.9530 h1        1 MOL      0.064186
     79 N8         -2.2820    5.5300   -0.8960 n         1 MOL     -0.609141
     80 C25        -2.6050    5.1150    0.5140 c3        1 MOL      0.115069
     81 C26        -1.7040    3.9220    0.8920 c         1 MOL      0.919492
     82 O14        -1.3220    3.1360    0.0270 o         1 MOL     -0.766368
     83 C27        -4.1410    4.7470    0.7070 c3        1 MOL      0.233191
     84 C28        -4.5220    3.6870   -0.2910 c3        1 MOL     -0.260128
     85 O15        -4.8430    5.9860    0.4350 oh        1 MOL     -0.616185
     86 H35        -3.0380    5.4550   -1.5590 hn        1 MOL      0.331610
     87 H36        -2.3200    5.9120    1.2010 h1        1 MOL      0.032899
     88 H37        -4.3660    4.4290    1.7230 h1        1 MOL     -0.025060
     89 H38        -5.7780    5.7830    0.4730 ho        1 MOL      0.402080
     90 H39        -4.1040    2.7100   -0.0360 hc        1 MOL      0.056281
     91 H40        -5.6080    3.6470   -0.1950 hc        1 MOL      0.056281
     92 H41        -4.1320    3.8500   -1.2900 hc        1 MOL      0.056281
     93 N9         -1.5710    3.8440    2.2070 n         1 MOL     -0.603890
     94 C29        -0.8800    2.7420    2.9840 c3        1 MOL      0.019958
     95 C30        -1.5000    1.3570    2.7670 c         1 MOL      0.467331
     96 O16        -1.5460    0.8190    1.6650 o         1 MOL     -0.468620
     97 C31         0.6780    2.9120    2.9290 c3        1 MOL      0.153097
     98 C32         1.2160    4.3540    2.9970 c3        1 MOL     -0.269604
     99 C33         1.4660    1.9850    3.8800 c3        1 MOL     -0.243277
    100 C34         2.2280    4.5180    1.8820 c3        1 MOL     -0.112268
    101 H42        -1.9800    4.5620    2.7890 hn        1 MOL      0.308618
    102 H43        -1.1370    3.0980    3.9860 h1        1 MOL      0.047042
    103 H44         0.9210    2.5540    1.9230 hc        1 MOL     -0.055192
    104 H45         1.8170    4.3580    3.9160 hc        1 MOL      0.081091
    105 H46         0.4360    5.1150    2.9550 hc        1 MOL      0.081091
    106 H47         2.5100    1.7970    3.6320 hc        1 MOL      0.067857
    107 H48         1.2630    2.3020    4.9040 hc        1 MOL      0.067857
    108 H49         0.9580    1.0270    3.7780 hc        1 MOL      0.067857
    109 H50         1.6830    4.5980    0.9470 hc        1 MOL      0.068864
    110 H51         2.8800    5.3640    2.1050 hc        1 MOL      0.068864
    111 H52         2.9830    3.7340    1.8140 hc        1 MOL      0.068864
    112 N10        -1.8710    0.7800    3.8680 n         1 MOL     -0.360075
    113 C35        -2.4790   -0.5800    3.8620 c3        1 MOL     -0.093754
    114 C36        -3.8550   -0.7340    3.2010 c         1 MOL      0.532952
    115 O17        -4.2420   -1.8540    2.9890 o         1 MOL     -0.523697
    116 C37        -2.3400   -1.2220    5.2640 c3        1 MOL      0.570218
    117 C38        -3.3010   -0.6210    6.3250 c3        1 MOL     -0.502680
    118 O18        -1.0280   -1.1570    5.7590 oh        1 MOL     -0.681070
    119 H53        -1.7360    1.2110    4.7790 hn        1 MOL      0.280119
    120 H54        -1.8510   -1.2170    3.2420 h1        1 MOL      0.049788
    121 H55        -2.6100   -2.2700    5.1200 h1        1 MOL     -0.038596
    122 H56        -0.3530   -1.6690    5.3160 ho        1 MOL      0.424876
    123 H57        -3.4000   -1.1670    7.2630 hc        1 MOL      0.133441
    124 H58        -2.9140    0.3940    6.4780 hc        1 MOL      0.133441
    125 H59        -4.2800   -0.7640    5.8680 hc        1 MOL      0.133441
    126 N11        -4.6570    0.3250    3.1450 n         1 MOL     -0.332625
    127 C39        -5.9780    0.3210    2.4280 c3        1 MOL      0.030641
    128 C40        -5.9040   -0.3280    1.0500 c         1 MOL      0.429655
    129 O19        -5.3070    0.2330    0.1360 o         1 MOL     -0.428510
    130 C41        -6.5570    1.7430    2.3170 c3        1 MOL      0.323754
    131 C42        -8.0300    1.7980    1.8940 c3        1 MOL     -0.541357
    132 O20        -6.3690    2.4110    3.4660 oh        1 MOL     -0.592596
    133 H60        -4.3880    1.2350    3.4960 hn        1 MOL      0.192824
    134 H61        -6.7170   -0.2820    2.9670 h1        1 MOL      0.038484
    135 H62        -5.8910    2.2270    1.6130 h1        1 MOL      0.078414
    136 H63        -7.0690    3.0570    3.5370 ho        1 MOL      0.395386
    137 H64        -8.6340    1.1760    2.5510 hc        1 MOL      0.147714
    138 H65        -8.4450    2.7980    1.7730 hc        1 MOL      0.147714
    139 H66        -8.1490    1.4630    0.8590 hc        1 MOL      0.147714
    140 N12        -6.6870   -1.4000    0.8060 n         1 MOL     -0.494661
    141 C43        -7.0220   -1.9380   -0.5200 c3        1 MOL      0.051819
    142 C44        -5.7460   -2.3050   -1.3170 c         1 MOL      0.518100
    143 O21        -5.6460   -1.9250   -2.4630 o         1 MOL     -0.490909
    144 C45        -8.1380   -1.1670   -1.2350 c3        1 MOL     -0.354443
    145 C46        -8.8420   -1.9760   -2.3640 c3        1 MOL     -0.122181
    146 C47        -9.6120   -3.1400   -1.7390 c3        1 MOL     -0.071368
    147 C48       -10.5720   -3.7540   -2.7500 c3        1 MOL     -0.006026
    148 N13       -11.2530   -4.8750   -2.0720 n4        1 MOL     -0.080663
    149 H67        -7.0380   -1.9170    1.6110 hn        1 MOL      0.323850
    150 H68        -7.4220   -2.8870   -0.1590 h1        1 MOL      0.031640
    151 H69        -7.7290   -0.2640   -1.7030 hc        1 MOL      0.142439
    152 H70        -8.9080   -0.8150   -0.5560 hc        1 MOL      0.142439
    153 H71        -8.0720   -2.4160   -3.0100 hc        1 MOL      0.102071
    154 H72        -9.2810   -1.3120   -3.1110 hc        1 MOL      0.102071
    155 H73       -10.1540   -2.7810   -0.8660 hc        1 MOL      0.061234
    156 H74        -8.8660   -3.9120   -1.5680 hc        1 MOL      0.061234
    157 H75        -9.9940   -4.1790   -3.5720 hx        1 MOL      0.085715
    158 H76       -11.2380   -2.9630   -3.0880 hx        1 MOL      0.085715
    159 H77       -11.9580   -4.6300   -1.3910 hn        1 MOL      0.185830
    160 H78       -11.7340   -5.4230   -2.7570 hn        1 MOL      0.185830
    161 H79       -10.6430   -5.5270   -1.6000 hn        1 MOL      0.185830
    162 N14        -4.7200   -2.9330   -0.6690 n         1 MOL     -0.419967
    163 C49        -3.3760   -3.2460   -1.2100 c3        1 MOL      0.174494
    164 C50        -2.2690   -2.8020   -0.2890 c         1 MOL      0.493232
    165 O22        -1.7520   -1.7000   -0.5300 o         1 MOL     -0.657046
    166 C51        -3.2470   -4.6710   -1.8360 c3        1 MOL      0.010131
    167 C52        -4.0970   -4.8370   -3.1150 c3        1 MOL     -0.388121
    168 C53        -4.1170   -6.2940   -3.5620 c         1 MOL      0.714515
    169 O23        -3.1400   -6.7080   -4.2210 o         1 MOL     -0.643874
    170 O24        -5.0280   -7.1000   -3.2580 o         1 MOL     -0.643874
    171 H80        -4.8610   -3.1830    0.3000 hn        1 MOL      0.264725
    172 H81        -3.3290   -2.5950   -2.0820 h1        1 MOL      0.066430
    173 H82        -3.6600   -5.3940   -1.1290 hc        1 MOL      0.050006
    174 H83        -2.1830   -4.8030   -2.0330 hc        1 MOL      0.050006
    175 H84        -3.7500   -4.2640   -3.9700 hc        1 MOL      0.102942
    176 H85        -5.1050   -4.4590   -2.9660 hc        1 MOL      0.102942
    177 N15        -1.8160   -3.4550    0.7980 n         1 MOL     -0.233381
    178 C54        -1.9610   -4.7920    1.3090 c3        1 MOL     -0.121099
    179 H86        -1.2360   -4.9560    2.1060 h1        1 MOL      0.059926
    180 H87        -2.9690   -4.9240    1.7030 h1        1 MOL      0.059926
    181 H88        -1.7870   -5.5090    0.5080 h1        1 MOL      0.059926
    182 H89        -1.0860   -2.9410    1.2580 hn        1 MOL      0.255954
    183 Ca1        -0.6550    0.7220   -0.7690 Ca        1 MOL      1.747856
    184 O25        -3.2190    0.8400   -1.4160 oh        1 MOL     -0.891325
    185 H90        -3.5400    0.9800   -2.3120 ho        1 MOL      0.434282
    186 H91        -4.0060    0.8230   -0.8840 ho        1 MOL      0.434282
    187 O26         0.9860   -0.5170   -2.2880 oh        1 MOL     -0.891325
    188 H92         1.1150    0.0900   -3.0240 ho        1 MOL      0.434282
    189 H93         1.8150   -0.4780   -1.8090 ho        1 MOL      0.434282
@<TRIPOS>BOND
     1    1    2 1   
     2    1    4 1   
     3    1    5 1   
     4    1    6 1   
     5    2    3 2   
     6    2    7 1   
     7    7    8 1   
     8    7   15 1   
     9    8    9 1   
    10    8   11 1   
    11    8   16 1   
    12    9   10 2   
    13    9   19 1   
    14   11   12 1   
    15   11   17 1   
    16   11   18 1   
    17   12   13 1   
    18   12   14 1   
    19   19   20 1   
    20   19   28 1   
    21   20   21 1   
    22   20   23 1   
    23   20   29 1   
    24   21   22 2   
    25   21   41 1   
    26   23   24 1   
    27   23   30 1   
    28   23   31 1   
    29   24   25 1   
    30   24   32 1   
    31   24   33 1   
    32   25   26 1   
    33   25   34 1   
    34   25   35 1   
    35   26   27 1   
    36   26   36 1   
    37   26   37 1   
    38   27   38 1   
    39   27   39 1   
    40   27   40 1   
    41   41   42 1   
    42   41   49 1   
    43   42   43 1   
    44   42   45 1   
    45   42   50 1   
    46   43   44 2   
    47   43   53 1   
    48   45   46 1   
    49   45   51 1   
    50   45   52 1   
    51   46   47 1   
    52   46   48 1   
    53   53   54 1   
    54   53   57 1   
    55   54   55 1   
    56   54   58 1   
    57   54   59 1   
    58   55   56 2   
    59   55   60 1   
    60   60   61 1   
    61   60   68 1   
    62   61   62 1   
    63   61   64 1   
    64   61   69 1   
    65   62   63 2   
    66   62   72 1   
    67   64   65 1   
    68   64   70 1   
    69   64   71 1   
    70   65   66 1   
    71   65   67 1   
    72   72   73 1   
    73   72   76 1   
    74   73   74 1   
    75   73   77 1   
    76   73   78 1   
    77   74   75 2   
    78   74   79 1   
    79   79   80 1   
    80   79   86 1   
    81   80   81 1   
    82   80   83 1   
    83   80   87 1   
    84   81   82 2   
    85   81   93 1   
    86   83   84 1   
    87   83   85 1   
    88   83   88 1   
    89   84   90 1   
    90   84   91 1   
    91   84   92 1   
    92   85   89 1   
    93   93   94 1   
    94   93  101 1   
    95   94   95 1   
    96   94   97 1   
    97   94  102 1   
    98   95   96 2   
    99   95  112 1   
   100   97   98 1   
   101   97   99 1   
   102   97  103 1   
   103   98  100 1   
   104   98  104 1   
   105   98  105 1   
   106   99  106 1   
   107   99  107 1   
   108   99  108 1   
   109  100  109 1   
   110  100  110 1   
   111  100  111 1   
   112  112  113 1   
   113  112  119 1   
   114  113  114 1   
   115  113  116 1   
   116  113  120 1   
   117  114  115 2   
   118  114  126 1   
   119  116  117 1   
   120  116  118 1   
   121  116  121 1   
   122  117  123 1   
   123  117  124 1   
   124  117  125 1   
   125  118  122 1   
   126  126  127 1   
   127  126  133 1   
   128  127  128 1   
   129  127  130 1   
   130  127  134 1   
   131  128  129 2   
   132  128  140 1   
   133  130  131 1   
   134  130  132 1   
   135  130  135 1   
   136  131  137 1   
   137  131  138 1   
   138  131  139 1   
   139  132  136 1   
   140  140  141 1   
   141  140  149 1   
   142  141  142 1   
   143  141  144 1   
   144  141  150 1   
   145  142  143 2   
   146  142  162 1   
   147  144  145 1   
   148  144  151 1   
   149  144  152 1   
   150  145  146 1   
   151  145  153 1   
   152  145  154 1   
   153  146  147 1   
   154  146  155 1   
   155  146  156 1   
   156  147  148 1   
   157  147  157 1   
   158  147  158 1   
   159  148  159 1   
   160  148  160 1   
   161  148  161 1   
   162  162  163 1   
   163  162  171 1   
   164  163  164 1   
   165  163  166 1   
   166  163  172 1   
   167  164  165 2   
   168  164  177 1   
   169  166  167 1   
   170  166  173 1   
   171  166  174 1   
   172  167  168 1   
   173  167  175 1   
   174  167  176 1   
   175  168  169 1   
   176  168  170 1   
   177  177  178 1   
   178  177  182 1   
   179  178  179 1   
   180  178  180 1   
   181  178  181 1   
   182  184  185 1   
   183  184  186 1   
   184  187  188 1   
   185  187  189 1   
@<TRIPOS>SUBSTRUCTURE
     1 MOL         1 TEMP              0 ****  ****    0 ROOT
