@<TRIPOS>MOLECULE
MOL
  189   185     1     0     0
SMALL
resp


@<TRIPOS>ATOM
      1 C1          4.5470    5.2120   -2.7290 c3        1 MOL     -0.358243
      2 C2          5.1810    4.2380   -1.8120 c         1 MOL      0.853693
      3 O1          4.5920    3.7350   -0.9000 o         1 MOL     -0.672608
      4 H1          3.4650    5.1820   -2.5990 hc        1 MOL      0.092087
      5 H2          4.9110    6.2140   -2.5050 hc        1 MOL      0.092087
      6 H3          4.7960    4.9570   -3.7590 hc        1 MOL      0.092087
      7 N1          6.4320    3.8020   -2.0900 n         1 MOL     -0.715656
      8 C3          7.0590    2.5360   -1.4890 c3        1 MOL      0.271387
      9 C4          6.1230    1.3200   -1.4990 c         1 MOL      0.606099
     10 O2          5.6650    0.7700   -0.4420 o         1 MOL     -0.814152
     11 C5          7.8690    2.6870   -0.1760 c3        1 MOL     -0.181578
     12 C6          7.2020    3.6020    0.8950 c         1 MOL      0.748148
     13 O3          6.3930    3.0980    1.7140 o         1 MOL     -0.724167
     14 O4          7.6480    4.7650    0.9470 o         1 MOL     -0.724167
     15 H4          6.7550    4.2590   -2.9320 hn        1 MOL      0.311108
     16 H5          7.8550    2.1230   -2.1100 h1        1 MOL      0.007224
     17 H6          8.8830    3.0380   -0.3710 hc        1 MOL      0.039942
     18 H7          8.0370    1.7280    0.3330 hc        1 MOL      0.039942
     19 N2          5.8880    0.7390   -2.7150 n         1 MOL     -0.599201
     20 C7          5.0830   -0.4620   -3.0900 c3        1 MOL      0.456106
     21 C8          5.6040   -1.8100   -2.5320 c         1 MOL      0.282005
     22 O5          6.0920   -2.6070   -3.3390 o         1 MOL     -0.538573
     23 C9          3.5750   -0.2440   -2.9560 c3        1 MOL      0.048897
     24 C10         2.5190   -1.2390   -3.4990 c3        1 MOL      0.106746
     25 C11         3.2160    1.2400   -3.3780 c3        1 MOL     -0.204088
     26 C12         2.6270   -1.6820   -4.9560 c3        1 MOL     -0.345072
     27 H8          6.1650    1.2910   -3.5130 hn        1 MOL      0.270618
     28 H9          5.3110   -0.5950   -4.1540 h1        1 MOL     -0.045711
     29 H10         3.4790   -0.2770   -1.8650 hc        1 MOL     -0.108449
     30 H11         1.5040   -0.8980   -3.2880 hc        1 MOL      0.061490
     31 H12         2.5600   -2.1790   -2.9390 hc        1 MOL      0.061490
     32 H13         3.2560    1.7770   -2.4200 hc        1 MOL      0.028154
     33 H14         3.8610    1.6280   -4.1570 hc        1 MOL      0.028154
     34 H15         2.2450    1.1820   -3.8650 hc        1 MOL      0.028154
     35 H16         3.6920   -1.8730   -5.1000 hc        1 MOL      0.064114
     36 H17         2.0230   -2.5830   -5.1010 hc        1 MOL      0.064114
     37 H18         2.3940   -0.7790   -5.5190 hc        1 MOL      0.064114
     38 N3          5.6030   -1.9200   -1.2160 n         1 MOL     -0.431799
     39 C13         6.4620   -2.9790   -0.6370 c3        1 MOL      0.334604
     40 C14         5.6900   -4.3050   -0.7150 c         1 MOL      0.596565
     41 O6          6.2850   -5.2290   -1.2550 o         1 MOL     -0.589922
     42 C15         6.9110   -2.5500    0.7900 c3        1 MOL     -0.481548
     43 C16         7.8370   -3.5560    1.4990 c         1 MOL      0.727417
     44 O7          7.3600   -4.3210    2.4050 o         1 MOL     -0.696438
     45 O8          8.9980   -3.6790    1.0660 o         1 MOL     -0.696438
     46 H19         5.4220   -1.0770   -0.6990 hn        1 MOL      0.480294
     47 H20         7.4070   -3.1900   -1.1360 h1        1 MOL      0.020567
     48 H21         6.0330   -2.2930    1.3890 hc        1 MOL      0.108895
     49 H22         7.4120   -1.5820    0.9020 hc        1 MOL      0.108895
     50 N4          4.4030   -4.4740   -0.3610 n         1 MOL     -0.520619
     51 C17         3.4440   -3.5480    0.1770 c3        1 MOL      0.190777
     52 C18         2.3410   -4.2840    0.9600 c         1 MOL      0.478804
     53 O9          2.0090   -5.4610    0.7460 o         1 MOL     -0.600038
     54 H23         3.9990   -5.3940   -0.4810 hn        1 MOL      0.272658
     55 H24         2.9060   -2.9410   -0.5540 h1        1 MOL     -0.008211
     56 H25         3.9840   -2.9810    0.9310 h1        1 MOL     -0.008211
     57 N5          1.7570   -3.6770    1.9800 n         1 MOL     -0.179789
     58 C19         2.1430   -2.4700    2.6970 c3        1 MOL      0.214542
     59 C20         2.2330   -1.2120    1.7230 c         1 MOL      0.240165
     60 O10         3.3300   -0.5850    1.4780 o         1 MOL     -0.572229
     61 C21         3.3950   -2.6690    3.5610 c3        1 MOL     -0.263354
     62 C22         3.6290   -1.4640    4.3990 c         1 MOL      0.767278
     63 O11         4.7940   -1.2660    4.8300 o         1 MOL     -0.699555
     64 O12         2.7260   -0.6720    4.7110 o         1 MOL     -0.699555
     65 H26         1.1530   -4.3290    2.4750 hn        1 MOL      0.137110
     66 H27         1.3310   -2.3010    3.4050 h1        1 MOL      0.017454
     67 H28         4.3540   -2.7130    3.0500 hc        1 MOL      0.067083
     68 H29         3.3160   -3.5220    4.2380 hc        1 MOL      0.067083
     69 N6          1.1220   -0.8730    0.9880 n         1 MOL     -0.085499
     70 C23        -0.1800   -1.4270    1.1770 c3        1 MOL     -0.265786
     71 C24        -0.3540   -2.5080    0.0510 c         1 MOL      0.696445
     72 O13         0.4160   -2.6330   -0.8910 o         1 MOL     -0.567914
     73 H30         1.2140   -0.0790    0.3570 hn        1 MOL      0.105647
     74 H31        -0.9840   -0.6960    1.0840 h1        1 MOL      0.108880
     75 H32        -0.2990   -1.9330    2.1350 h1        1 MOL      0.108880
     76 N7         -1.4020   -3.4030    0.2180 n         1 MOL     -0.518752
     77 C25        -1.7900   -4.5710   -0.6010 c3        1 MOL      0.005173
     78 C26        -2.5950   -4.1520   -1.8460 c         1 MOL      0.342917
     79 O14        -3.0470   -4.9640   -2.6480 o         1 MOL     -0.529150
     80 C27        -2.5310   -5.6100    0.2420 c3        1 MOL      0.175985
     81 C28        -1.7250   -6.2030    1.4510 c3        1 MOL     -0.363982
     82 C29        -1.5900   -5.2670    2.6190 c         1 MOL      0.505225
     83 N8         -2.6140   -4.7520    3.2350 n         1 MOL     -0.676813
     84 O15        -0.4730   -4.9490    3.1120 o         1 MOL     -0.465900
     85 H33        -1.8990   -3.1940    1.0650 hn        1 MOL      0.238172
     86 H34        -0.8940   -5.0740   -0.9630 h1        1 MOL      0.159177
     87 H35        -2.6790   -6.5200   -0.3390 hc        1 MOL     -0.037897
     88 H36        -3.4530   -5.1740    0.6050 hc        1 MOL     -0.037897
     89 H37        -0.7530   -6.5020    1.0490 hc        1 MOL      0.150507
     90 H38        -2.2580   -7.0780    1.8240 hc        1 MOL      0.150507
     91 H39        -3.5420   -5.1260    3.0690 hn        1 MOL      0.341912
     92 H40        -2.4390   -4.1090    3.9960 hn        1 MOL      0.341912
     93 N9         -2.7690   -2.8560   -2.1450 n         1 MOL     -0.068662
     94 C30        -3.3610   -2.2530   -3.4040 c3        1 MOL     -0.159295
     95 C31        -4.7090   -1.4700   -3.2130 c         1 MOL      0.595257
     96 O16        -5.2990   -1.0050   -4.1620 o         1 MOL     -0.541785
     97 C32        -2.2790   -1.4300   -4.1540 c3        1 MOL      0.089111
     98 C33        -1.0010   -2.2960   -4.5130 c3        1 MOL     -0.080873
     99 C34        -1.8740   -0.1280   -3.4040 c3        1 MOL     -0.080873
    100 H41        -2.4520   -2.2060   -1.4350 hn        1 MOL      0.125262
    101 H42        -3.7050   -3.0710   -4.0530 h1        1 MOL      0.134640
    102 H43        -2.6670   -1.1650   -5.1430 hc        1 MOL      0.001298
    103 H44        -0.5200   -2.6330   -3.6000 hc        1 MOL      0.024099
    104 H45        -1.2990   -3.1710   -5.0850 hc        1 MOL      0.024099
    105 H46        -0.3230   -1.7660   -5.1980 hc        1 MOL      0.024099
    106 H47        -0.9750    0.3440   -3.7950 hc        1 MOL      0.024099
    107 H48        -2.6860    0.5760   -3.5590 hc        1 MOL      0.024099
    108 H49        -1.8070   -0.3220   -2.3300 hc        1 MOL      0.024099
    109 N10        -5.2250   -1.3800   -2.0020 n         1 MOL     -0.615107
    110 C35        -6.6770   -1.0220   -1.8510 c3        1 MOL      0.311817
    111 C36        -6.8560    0.3710   -1.3480 c         1 MOL      0.533649
    112 O17        -7.8110    0.9700   -1.8510 o         1 MOL     -0.549899
    113 C37        -7.2470   -2.0310   -0.8830 c3        1 MOL     -0.479107
    114 C38        -7.0290   -3.4560   -1.3780 c         1 MOL      0.754731
    115 N11        -6.7560   -4.3870   -0.5110 n         1 MOL     -0.810843
    116 O18        -7.2650   -3.7230   -2.4970 o         1 MOL     -0.540684
    117 H50        -4.6320   -1.5980   -1.2100 hn        1 MOL      0.290178
    118 H51        -7.2020   -1.0150   -2.8000 h1        1 MOL      0.066418
    119 H52        -8.3240   -1.8430   -0.8800 hc        1 MOL      0.129057
    120 H53        -6.7260   -1.9770    0.0650 hc        1 MOL      0.129057
    121 H54        -6.8240   -4.1670    0.4750 hn        1 MOL      0.358650
    122 H55        -6.6110   -5.3410   -0.7980 hn        1 MOL      0.358650
    123 N12        -6.0440    0.9100   -0.3960 n         1 MOL     -0.551598
    124 C39        -6.3670    2.1410    0.3420 c3        1 MOL      0.441285
    125 C40        -5.0120    2.9300    0.5480 c         1 MOL      0.239396
    126 O19        -3.9400    2.3070    0.6570 o         1 MOL     -0.479519
    127 C41        -7.0550    1.7990    1.6850 c3        1 MOL     -0.099394
    128 C42        -8.2310    0.7440    1.5810 ca        1 MOL     -0.011070
    129 C43        -8.0420   -0.4750    2.2130 ca        1 MOL     -0.156041
    130 C44        -9.4330    0.9810    0.8430 ca        1 MOL     -0.156041
    131 C45        -9.1200   -1.4960    2.2200 ca        1 MOL     -0.257025
    132 C46       -10.5340    0.0990    0.8840 ca        1 MOL     -0.257025
    133 C47       -10.3590   -1.1410    1.6220 ca        1 MOL      0.303318
    134 O20       -11.3460   -2.1000    1.5950 oh        1 MOL     -0.531318
    135 H56        -5.2100    0.4190   -0.0980 hn        1 MOL      0.278782
    136 H57        -6.9970    2.6960   -0.3570 h1        1 MOL     -0.026858
    137 H58        -7.5860    2.7210    1.9270 hc        1 MOL      0.055787
    138 H59        -6.4020    1.4840    2.5020 hc        1 MOL      0.055787
    139 H60        -7.0670   -0.7960    2.5390 ha        1 MOL      0.133105
    140 H61        -9.6010    1.8690    0.2510 ha        1 MOL      0.133105
    141 H62        -8.9540   -2.4520    2.6950 ha        1 MOL      0.135505
    142 H63       -11.5100    0.2740    0.4650 ha        1 MOL      0.135505
    143 H64       -12.0030   -1.8880    0.9220 ho        1 MOL      0.380918
    144 N13        -5.1350    4.2400    0.7740 n         1 MOL     -0.435159
    145 C48        -4.0170    5.1130    1.3250 c3        1 MOL     -0.050645
    146 C49        -2.5990    5.2410    0.6260 c         1 MOL      0.366484
    147 O21        -1.7100    5.9860    1.0810 o         1 MOL     -0.444897
    148 C50        -3.8520    4.7990    2.8440 c3        1 MOL      0.114655
    149 C51        -3.0690    3.5850    3.2640 c3        1 MOL     -0.095542
    150 C52        -2.6980    3.6020    4.7760 c         1 MOL      0.707760
    151 O22        -3.0400    4.5730    5.4430 o         1 MOL     -0.734079
    152 O23        -2.2140    2.5570    5.2300 o         1 MOL     -0.734079
    153 H65        -6.0120    4.6570    0.5060 hn        1 MOL      0.285843
    154 H66        -4.3290    6.1480    1.1830 h1        1 MOL      0.065394
    155 H67        -4.8320    4.7340    3.3030 hc        1 MOL     -0.021855
    156 H68        -3.3350    5.6700    3.2540 hc        1 MOL     -0.021855
    157 H69        -2.1990    3.3080    2.6770 hc        1 MOL      0.026356
    158 H70        -3.8240    2.8200    3.1110 hc        1 MOL      0.026356
    159 N14        -2.3900    4.4540   -0.4550 n         1 MOL     -0.318094
    160 C53        -1.0620    4.5310   -1.2060 c3        1 MOL     -0.035834
    161 C54        -1.0570    5.5820   -2.3330 c         1 MOL      0.464137
    162 O24        -0.0090    6.1890   -2.5800 o         1 MOL     -0.501437
    163 C55        -0.6610    3.1220   -1.6450 c3        1 MOL     -0.021305
    164 C56        -0.3220    2.2100   -0.3860 c3        1 MOL      0.236617
    165 C57         1.1230    2.5020   -0.0070 c         1 MOL      0.626423
    166 O25         1.8930    1.5470   -0.2300 o         1 MOL     -0.588026
    167 O26         1.6150    3.5770    0.2650 o         1 MOL     -0.588026
    168 H71        -3.1310    3.8350   -0.7550 hn        1 MOL      0.316157
    169 H72        -0.3310    4.8120   -0.4510 h1        1 MOL      0.088516
    170 H73         0.2660    3.1510   -2.2210 hc        1 MOL     -0.015193
    171 H74        -1.5010    2.7010   -2.1900 hc        1 MOL     -0.015193
    172 H75        -0.5910    1.1770   -0.6140 hc        1 MOL     -0.095422
    173 H76        -0.8600    2.6110    0.4690 hc        1 MOL     -0.095422
    174 N15        -2.2760    5.7880   -2.8690 n         1 MOL     -0.231236
    175 C58        -2.6410    6.7120   -4.0100 c3        1 MOL     -0.290975
    176 H77        -3.7250    6.8140   -4.0620 h1        1 MOL      0.117784
    177 H78        -2.1920    7.6910   -3.8440 h1        1 MOL      0.117784
    178 H79        -2.2700    6.2970   -4.9470 h1        1 MOL      0.117784
    179 H80        -3.0330    5.3240   -2.3800 hn        1 MOL      0.183949
    180 Ca1         4.0480    2.1070    1.1400 Ca        1 MOL      1.817091
    181 O27         3.2770    4.5750    2.1490 oh        1 MOL     -0.892422
    182 H81         3.6780    5.3970    2.4430 ho        1 MOL      0.420013
    183 H82         2.3830    4.8250    1.9020 ho        1 MOL      0.420013
    184 O28         5.4140    0.8950    3.4730 oh        1 MOL     -0.892422
    185 H83         6.3700    0.9480    3.4880 ho        1 MOL      0.420013
    186 H84         5.2050    0.1130    3.9790 ho        1 MOL      0.420013
    187 O29         2.5150    1.6550    3.2270 oh        1 MOL     -0.892422
    188 H85         2.6770    0.8900    3.7660 ho        1 MOL      0.420013
    189 H86         1.7640    2.0820    3.6370 ho        1 MOL      0.420013
@<TRIPOS>BOND
     1    1    2 1   
     2    1    4 1   
     3    1    5 1   
     4    1    6 1   
     5    2    3 2   
     6    2    7 1   
     7    7    8 1   
     8    7   15 1   
     9    8    9 1   
    10    8   11 1   
    11    8   16 1   
    12    9   10 2   
    13    9   19 1   
    14   11   12 1   
    15   11   17 1   
    16   11   18 1   
    17   12   13 1   
    18   12   14 1   
    19   19   20 1   
    20   19   27 1   
    21   20   21 1   
    22   20   23 1   
    23   20   28 1   
    24   21   22 2   
    25   21   38 1   
    26   23   24 1   
    27   23   25 1   
    28   23   29 1   
    29   24   26 1   
    30   24   30 1   
    31   24   31 1   
    32   25   32 1   
    33   25   33 1   
    34   25   34 1   
    35   26   35 1   
    36   26   36 1   
    37   26   37 1   
    38   38   39 1   
    39   38   46 1   
    40   39   40 1   
    41   39   42 1   
    42   39   47 1   
    43   40   41 2   
    44   40   50 1   
    45   42   43 1   
    46   42   48 1   
    47   42   49 1   
    48   43   44 1   
    49   43   45 1   
    50   50   51 1   
    51   50   54 1   
    52   51   52 1   
    53   51   55 1   
    54   51   56 1   
    55   52   53 2   
    56   52   57 1   
    57   57   58 1   
    58   57   65 1   
    59   58   59 1   
    60   58   61 1   
    61   58   66 1   
    62   59   60 2   
    63   59   69 1   
    64   61   62 1   
    65   61   67 1   
    66   61   68 1   
    67   62   63 1   
    68   62   64 1   
    69   69   70 1   
    70   69   73 1   
    71   70   71 1   
    72   70   74 1   
    73   70   75 1   
    74   71   72 2   
    75   71   76 1   
    76   76   77 1   
    77   76   85 1   
    78   77   78 1   
    79   77   80 1   
    80   77   86 1   
    81   78   79 2   
    82   78   93 1   
    83   80   81 1   
    84   80   87 1   
    85   80   88 1   
    86   81   82 1   
    87   81   89 1   
    88   81   90 1   
    89   82   83 1   
    90   82   84 2   
    91   83   91 1   
    92   83   92 1   
    93   93   94 1   
    94   93  100 1   
    95   94   95 1   
    96   94   97 1   
    97   94  101 1   
    98   95   96 2   
    99   95  109 1   
   100   97   98 1   
   101   97   99 1   
   102   97  102 1   
   103   98  103 1   
   104   98  104 1   
   105   98  105 1   
   106   99  106 1   
   107   99  107 1   
   108   99  108 1   
   109  109  110 1   
   110  109  117 1   
   111  110  111 1   
   112  110  113 1   
   113  110  118 1   
   114  111  112 2   
   115  111  123 1   
   116  113  114 1   
   117  113  119 1   
   118  113  120 1   
   119  114  115 1   
   120  114  116 2   
   121  115  121 1   
   122  115  122 1   
   123  123  124 1   
   124  123  135 1   
   125  124  125 1   
   126  124  127 1   
   127  124  136 1   
   128  125  126 2   
   129  125  144 1   
   130  127  128 1   
   131  127  137 1   
   132  127  138 1   
   133  128  129 ar  
   134  128  130 ar  
   135  129  131 ar  
   136  129  139 1   
   137  130  132 ar  
   138  130  140 1   
   139  131  133 ar  
   140  131  141 1   
   141  132  133 ar  
   142  132  142 1   
   143  133  134 1   
   144  134  143 1   
   145  144  145 1   
   146  144  153 1   
   147  145  146 1   
   148  145  148 1   
   149  145  154 1   
   150  146  147 2   
   151  146  159 1   
   152  148  149 1   
   153  148  155 1   
   154  148  156 1   
   155  149  150 1   
   156  149  157 1   
   157  149  158 1   
   158  150  151 1   
   159  150  152 1   
   160  159  160 1   
   161  159  168 1   
   162  160  161 1   
   163  160  163 1   
   164  160  169 1   
   165  161  162 2   
   166  161  174 1   
   167  163  164 1   
   168  163  170 1   
   169  163  171 1   
   170  164  165 1   
   171  164  172 1   
   172  164  173 1   
   173  165  166 1   
   174  165  167 1   
   175  174  175 1   
   176  174  179 1   
   177  175  176 1   
   178  175  177 1   
   179  175  178 1   
   180  181  182 1   
   181  181  183 1   
   182  184  185 1   
   183  184  186 1   
   184  187  188 1   
   185  187  189 1   
@<TRIPOS>SUBSTRUCTURE
     1 MOL         1 TEMP              0 ****  ****    0 ROOT
