@<TRIPOS>MOLECULE
MOL
  182   178     1     0     0
SMALL
resp


@<TRIPOS>ATOM
      1 C1          0.3850   -3.6150    5.8940 c3        1 MOL     -0.473867
      2 C2          0.4190   -3.4740    4.4160 c         1 MOL      0.805647
      3 O1         -0.5260   -3.5570    3.7060 o         1 MOL     -0.592221
      4 H1          0.5240   -2.6370    6.3560 hc        1 MOL      0.130608
      5 H2         -0.5780   -4.0260    6.1990 hc        1 MOL      0.130608
      6 H3          1.1840   -4.2830    6.2140 hc        1 MOL      0.130608
      7 N1          1.6320   -3.3550    3.8900 n         1 MOL     -0.604095
      8 C3          1.9230   -3.0470    2.4760 c3        1 MOL      0.045029
      9 C4          1.9050   -4.3250    1.5750 c         1 MOL      0.492189
     10 O2          1.8210   -5.4720    2.0440 o         1 MOL     -0.557090
     11 C5          3.2780   -2.3070    2.4600 c3        1 MOL     -0.132502
     12 C6          3.4710   -1.4640    1.1440 c         1 MOL      0.354578
     13 O3          4.2180   -0.5000    1.1550 o         1 MOL     -0.580774
     14 O4          3.1050   -1.8880    0.0090 o         1 MOL     -0.580774
     15 H4          2.4800   -3.3610    4.4250 hn        1 MOL      0.305708
     16 H5          1.1220   -2.4280    2.0490 h1        1 MOL      0.070996
     17 H6          4.0730   -3.0490    2.5540 hc        1 MOL      0.098291
     18 H7          3.3300   -1.6650    3.3420 hc        1 MOL      0.098291
     19 N2          1.9630   -4.1970    0.2680 n         1 MOL     -0.243274
     20 C7          1.9660   -5.3420   -0.6720 c3        1 MOL     -0.013911
     21 C8          3.2860   -5.3130   -1.4820 c         1 MOL      0.510288
     22 O5          3.7770   -6.3570   -1.8990 o         1 MOL     -0.555413
     23 C9          0.7100   -5.1370   -1.5640 c3        1 MOL      0.030202
     24 C10        -0.4410   -5.9050   -0.9190 c3        1 MOL      0.028584
     25 C11        -1.6480   -6.1510   -1.8510 c3        1 MOL      0.126752
     26 C12        -2.5350   -7.0540   -1.1920 c3        1 MOL     -0.009773
     27 N3         -3.6160   -7.3900   -2.1850 n4        1 MOL     -0.203317
     28 H8          2.0030   -3.2740   -0.1360 hn        1 MOL      0.223292
     29 H9          1.9050   -6.3280   -0.2070 h1        1 MOL      0.102651
     30 H10         0.9270   -5.4910   -2.5780 hc        1 MOL     -0.043658
     31 H11         0.4680   -4.0750   -1.5770 hc        1 MOL     -0.043658
     32 H12        -0.8790   -5.2330   -0.1810 hc        1 MOL      0.017058
     33 H13        -0.1560   -6.8460   -0.4420 hc        1 MOL      0.017058
     34 H14        -1.3730   -6.6150   -2.7950 hc        1 MOL     -0.013622
     35 H15        -2.1880   -5.2250   -2.0560 hc        1 MOL     -0.013622
     36 H16        -2.8730   -6.5510   -0.2910 hx        1 MOL      0.079312
     37 H17        -1.9290   -7.9330   -0.9860 hx        1 MOL      0.079312
     38 H18        -4.3840   -7.9900   -1.9140 hn        1 MOL      0.231447
     39 H19        -4.0550   -6.5700   -2.5750 hn        1 MOL      0.231447
     40 H20        -3.1970   -7.9590   -2.9020 hn        1 MOL      0.231447
     41 N4          3.9110   -4.1140   -1.6080 n         1 MOL     -0.273665
     42 C13         5.1810   -3.8350   -2.3660 c3        1 MOL      0.229103
     43 C14         6.2810   -3.3930   -1.4290 c         1 MOL      0.203515
     44 O6          7.4840   -3.6790   -1.6360 o         1 MOL     -0.512999
     45 C15         4.8290   -2.7730   -3.4550 c3        1 MOL     -0.424143
     46 C16         4.2300   -1.5230   -2.8710 c         1 MOL      0.998853
     47 O7          4.9220   -0.7470   -2.2210 o         1 MOL     -0.810502
     48 O8          3.0740   -1.1590   -3.0600 o         1 MOL     -0.810502
     49 H21         3.4430   -3.3610   -1.1350 hn        1 MOL      0.017801
     50 H22         5.4440   -4.7480   -2.8970 h1        1 MOL      0.089197
     51 H23         4.1260   -3.2310   -4.1480 hc        1 MOL      0.100332
     52 H24         5.6870   -2.4830   -4.0640 hc        1 MOL      0.100332
     53 N5          5.9290   -2.7190   -0.3270 n         1 MOL      0.228537
     54 C17         6.9300   -2.4570    0.6860 c3        1 MOL     -0.419178
     55 C18         7.5070   -1.0370    0.7050 c         1 MOL      0.730019
     56 O9          8.2750   -0.7290    1.5970 o         1 MOL     -0.554580
     57 H25         4.9430   -2.6180   -0.1170 hn        1 MOL      0.015935
     58 H26         7.7910   -3.1200    0.6080 h1        1 MOL      0.137456
     59 H27         6.4650   -2.5220    1.6780 h1        1 MOL      0.137456
     60 N6          6.9450   -0.1050   -0.1240 n         1 MOL     -0.473246
     61 C19         7.4440    1.2450   -0.3120 c3        1 MOL      0.144859
     62 C20         6.3050    2.3030   -0.2790 c         1 MOL      0.672257
     63 O10         5.1760    2.0070   -0.6610 o         1 MOL     -0.633988
     64 C21         8.2560    1.2610   -1.6410 c3        1 MOL     -0.365001
     65 C22         9.5680    0.5700   -1.3110 c         1 MOL      0.619749
     66 N7          9.8350   -0.5480   -1.9700 n         1 MOL     -0.754617
     67 O11        10.4200    0.9750   -0.5430 o         1 MOL     -0.517697
     68 H28         6.2880   -0.4700   -0.8000 hn        1 MOL      0.305931
     69 H29         8.1300    1.5180    0.4830 h1        1 MOL      0.000685
     70 H30         8.4710    2.3190   -1.8260 hc        1 MOL      0.098255
     71 H31         7.7140    0.7800   -2.4540 hc        1 MOL      0.098255
     72 H32         9.3700   -0.6970   -2.8550 hn        1 MOL      0.364475
     73 H33        10.6330   -1.1010   -1.6890 hn        1 MOL      0.364475
     74 N8          6.6430    3.5050    0.0320 n         1 MOL     -0.419065
     75 C23         5.8320    4.6700    0.0450 c3        1 MOL     -0.183727
     76 C24         4.6110    4.5600    0.9310 c         1 MOL      0.695372
     77 O12         4.6720    4.2520    2.0840 o         1 MOL     -0.502547
     78 H34         7.5840    3.6310    0.3690 hn        1 MOL      0.323619
     79 H35         5.4710    4.7870   -0.9740 h1        1 MOL      0.108285
     80 H36         6.3320    5.5960    0.3290 h1        1 MOL      0.108285
     81 N9          3.4280    4.8910    0.3670 n         1 MOL     -0.635900
     82 C25         2.1140    4.6850    1.0670 c3        1 MOL     -0.003051
     83 C26         1.8610    3.2360    1.4350 c         1 MOL      0.626714
     84 O13         2.5120    2.2890    1.0310 o         1 MOL     -0.600342
     85 C27         0.9620    5.1960    0.1580 c3        1 MOL     -0.132084
     86 C28         0.9760    6.6190   -0.3020 ca        1 MOL      0.097246
     87 C29         1.4250    7.6510    0.5280 ca        1 MOL     -0.180459
     88 C30         0.4840    6.9040   -1.6040 ca        1 MOL     -0.180459
     89 C31         1.6650    8.9190   -0.0450 ca        1 MOL     -0.231888
     90 C32         0.5210    8.2160   -2.0960 ca        1 MOL     -0.231888
     91 C33         1.2070    9.1770   -1.3600 ca        1 MOL      0.317310
     92 O14         1.4290   10.3760   -1.9470 oh        1 MOL     -0.478491
     93 H37         3.4210    5.2520   -0.5760 hn        1 MOL      0.299946
     94 H38         2.0750    5.2050    2.0270 h1        1 MOL      0.104288
     95 H39         0.0200    5.0700    0.6750 hc        1 MOL      0.060130
     96 H40         0.7990    4.4830   -0.6570 hc        1 MOL      0.060130
     97 H41         1.8700    7.4500    1.4930 ha        1 MOL      0.142245
     98 H42         0.1000    6.1080   -2.2120 ha        1 MOL      0.142245
     99 H43         2.1200    9.7180    0.5250 ha        1 MOL      0.156963
    100 H44         0.1350    8.4300   -3.0840 ha        1 MOL      0.156963
    101 H45         1.8720   11.0130   -1.3780 ho        1 MOL      0.371659
    102 N10         0.7980    2.9840    2.1010 n         1 MOL     -0.487020
    103 C34         0.2280    1.6620    2.6120 c3        1 MOL      0.094233
    104 C35        -0.1190    0.5760    1.4800 c         1 MOL      0.316656
    105 O15         0.7980    0.1270    0.8620 o         1 MOL     -0.439450
    106 C36         1.1700    1.1230    3.7120 c3        1 MOL      0.108480
    107 C37         0.6240   -0.0920    4.4460 c3        1 MOL     -0.070844
    108 C38         1.5570    2.2700    4.6910 c3        1 MOL     -0.351113
    109 C39        -0.7170    0.0410    5.2360 c3        1 MOL     -0.101029
    110 H46         0.1630    3.7540    2.2460 hn        1 MOL      0.268377
    111 H47        -0.7030    1.7910    3.1650 h1        1 MOL      0.043858
    112 H48         2.0950    0.7860    3.2460 hc        1 MOL      0.093259
    113 H49         1.3970   -0.3900    5.1540 hc        1 MOL      0.038359
    114 H50         0.4550   -0.8400    3.6720 hc        1 MOL      0.038359
    115 H51         1.9870    2.0290    5.6610 hc        1 MOL      0.099302
    116 H52         2.3640    2.8040    4.1750 hc        1 MOL      0.099302
    117 H53         0.7610    2.9860    4.8930 hc        1 MOL      0.099302
    118 H54        -1.6000    0.0900    4.6030 hc        1 MOL      0.021178
    119 H55        -0.7950   -0.8800    5.8210 hc        1 MOL      0.021178
    120 H56        -0.6760    0.9180    5.8900 hc        1 MOL      0.021178
    121 N11        -1.3670    0.2460    1.2470 n         1 MOL     -0.173369
    122 C40        -1.7840   -0.6950    0.1590 c3        1 MOL     -0.323719
    123 C41        -3.1790   -0.6170   -0.3660 c         1 MOL      0.711273
    124 O16        -3.4720   -1.3640   -1.3230 o         1 MOL     -0.575499
    125 C42        -1.5840   -2.1660    0.6440 c3        1 MOL      0.421436
    126 O17        -2.3740   -2.4680    1.7550 oh        1 MOL     -0.641876
    127 H57        -2.0780    0.7710    1.7380 hn        1 MOL      0.196467
    128 H58        -1.1430   -0.4230   -0.6730 h1        1 MOL      0.122974
    129 H59        -0.5340   -2.2990    0.9130 h1        1 MOL     -0.012173
    130 H60        -1.7600   -2.8400   -0.1840 h1        1 MOL     -0.012173
    131 H61        -1.8950   -2.4220    2.5900 ho        1 MOL      0.396053
    132 N12        -4.0780    0.1440    0.2420 n         1 MOL     -0.615541
    133 C43        -5.4520    0.1790   -0.1290 c3        1 MOL      0.131930
    134 C44        -5.6160    0.8080   -1.5330 c         1 MOL      0.617121
    135 O18        -4.8580    1.6630   -1.9740 o         1 MOL     -0.566301
    136 C45        -6.1770    0.9970    1.0110 c3        1 MOL     -0.220049
    137 H62        -3.8220    0.6980    1.0390 hn        1 MOL      0.334836
    138 H63        -5.8410   -0.8340   -0.1030 h1        1 MOL      0.109351
    139 H64        -7.2180    0.7210    1.1800 hc        1 MOL      0.080190
    140 H65        -5.6990    0.7200    1.9520 hc        1 MOL      0.080190
    141 H66        -6.0570    2.0750    0.9190 hc        1 MOL      0.080190
    142 N13        -6.6960    0.4810   -2.2350 n         1 MOL     -0.611611
    143 C46        -7.8340   -0.3850   -1.8320 c3        1 MOL      0.191695
    144 C47        -9.1200    0.2670   -2.6470 c         1 MOL      0.473871
    145 O19        -8.9260    0.5000   -3.8400 o         1 MOL     -0.491991
    146 C48        -7.6010   -1.8240   -2.3200 c3        1 MOL     -0.115062
    147 H67        -6.8430    0.9840   -3.0960 hn        1 MOL      0.336928
    148 H68        -7.8700   -0.4840   -0.7430 h1        1 MOL     -0.020736
    149 H69        -6.6670   -2.3110   -2.0410 hc        1 MOL      0.043341
    150 H70        -8.4150   -2.4680   -1.9720 hc        1 MOL      0.043341
    151 H71        -7.6180   -1.8460   -3.4090 hc        1 MOL      0.043341
    152 N14       -10.3170    0.5160   -2.0440 n         1 MOL     -0.569430
    153 C49       -10.6660    0.2470   -0.6430 c3        1 MOL      0.153687
    154 C50       -10.1070    1.2600    0.2870 c         1 MOL      0.399098
    155 O20        -9.6080    0.9130    1.4100 o         1 MOL     -0.547831
    156 C51       -12.1890    0.0620   -0.5780 c3        1 MOL      0.038883
    157 C52       -12.7960   -0.2730    0.7700 c3        1 MOL     -0.306251
    158 C53       -14.2860   -0.3840    0.8330 c         1 MOL      0.760531
    159 O21       -14.8490   -1.1890    1.5940 o         1 MOL     -0.669265
    160 O22       -15.0190    0.4010    0.1300 o         1 MOL     -0.669265
    161 H72       -10.9900    0.9750   -2.6350 hn        1 MOL      0.328838
    162 H73       -10.2440   -0.6850   -0.2550 h1        1 MOL      0.070846
    163 H74       -12.5860   -0.6940   -1.2620 hc        1 MOL      0.003794
    164 H75       -12.5570    1.0620   -0.8030 hc        1 MOL      0.003794
    165 H76       -12.4450    0.5340    1.4200 hc        1 MOL      0.072748
    166 H77       -12.3570   -1.2200    1.0670 hc        1 MOL      0.072748
    167 N15       -10.0660    2.5550   -0.0470 n         1 MOL     -0.238363
    168 C54        -9.3360    3.6300    0.7170 c3        1 MOL     -0.228801
    169 H78        -8.6710    3.1690    1.4460 h1        1 MOL      0.113143
    170 H79        -8.7500    4.2350    0.0250 h1        1 MOL      0.113143
    171 H80       -10.0570    4.2640    1.2330 h1        1 MOL      0.113143
    172 H81       -10.5950    2.8450   -0.8540 hn        1 MOL      0.257786
    173 Ca1         2.8030    0.6520   -0.9590 Ca        1 MOL      1.779542
    174 O23         0.3210    1.7020   -1.5100 oh        1 MOL     -0.842160
    175 H82        -0.0110    0.9540   -1.9960 ho        1 MOL      0.419546
    176 H83        -0.3170    2.3920   -1.6620 ho        1 MOL      0.419546
    177 O24         2.9440    2.1040   -3.0550 oh        1 MOL     -0.842160
    178 H84         3.8160    2.3030   -3.4060 ho        1 MOL      0.419546
    179 H85         2.4660    2.9250   -3.1180 ho        1 MOL      0.419546
    180 O25         0.5780   -1.1950   -1.8770 oh        1 MOL     -0.842160
    181 H86         1.3650   -1.6360   -2.1900 ho        1 MOL      0.419546
    182 H87        -0.1380   -1.8020   -2.0930 ho        1 MOL      0.419546
@<TRIPOS>BOND
     1    1    2 1   
     2    1    4 1   
     3    1    5 1   
     4    1    6 1   
     5    2    3 2   
     6    2    7 1   
     7    7    8 1   
     8    7   15 1   
     9    8    9 1   
    10    8   11 1   
    11    8   16 1   
    12    9   10 2   
    13    9   19 1   
    14   11   12 1   
    15   11   17 1   
    16   11   18 1   
    17   12   13 1   
    18   12   14 1   
    19   19   20 1   
    20   19   28 1   
    21   20   21 1   
    22   20   23 1   
    23   20   29 1   
    24   21   22 2   
    25   21   41 1   
    26   23   24 1   
    27   23   30 1   
    28   23   31 1   
    29   24   25 1   
    30   24   32 1   
    31   24   33 1   
    32   25   26 1   
    33   25   34 1   
    34   25   35 1   
    35   26   27 1   
    36   26   36 1   
    37   26   37 1   
    38   27   38 1   
    39   27   39 1   
    40   27   40 1   
    41   41   42 1   
    42   41   49 1   
    43   42   43 1   
    44   42   45 1   
    45   42   50 1   
    46   43   44 2   
    47   43   53 1   
    48   45   46 1   
    49   45   51 1   
    50   45   52 1   
    51   46   47 1   
    52   46   48 1   
    53   53   54 1   
    54   53   57 1   
    55   54   55 1   
    56   54   58 1   
    57   54   59 1   
    58   55   56 2   
    59   55   60 1   
    60   60   61 1   
    61   60   68 1   
    62   61   62 1   
    63   61   64 1   
    64   61   69 1   
    65   62   63 2   
    66   62   74 1   
    67   64   65 1   
    68   64   70 1   
    69   64   71 1   
    70   65   66 1   
    71   65   67 2   
    72   66   72 1   
    73   66   73 1   
    74   74   75 1   
    75   74   78 1   
    76   75   76 1   
    77   75   79 1   
    78   75   80 1   
    79   76   77 2   
    80   76   81 1   
    81   81   82 1   
    82   81   93 1   
    83   82   83 1   
    84   82   85 1   
    85   82   94 1   
    86   83   84 2   
    87   83  102 1   
    88   85   86 1   
    89   85   95 1   
    90   85   96 1   
    91   86   87 ar  
    92   86   88 ar  
    93   87   89 ar  
    94   87   97 1   
    95   88   90 ar  
    96   88   98 1   
    97   89   91 ar  
    98   89   99 1   
    99   90   91 ar  
   100   90  100 1   
   101   91   92 1   
   102   92  101 1   
   103  102  103 1   
   104  102  110 1   
   105  103  104 1   
   106  103  106 1   
   107  103  111 1   
   108  104  105 2   
   109  104  121 1   
   110  106  107 1   
   111  106  108 1   
   112  106  112 1   
   113  107  109 1   
   114  107  113 1   
   115  107  114 1   
   116  108  115 1   
   117  108  116 1   
   118  108  117 1   
   119  109  118 1   
   120  109  119 1   
   121  109  120 1   
   122  121  122 1   
   123  121  127 1   
   124  122  123 1   
   125  122  125 1   
   126  122  128 1   
   127  123  124 2   
   128  123  132 1   
   129  125  126 1   
   130  125  129 1   
   131  125  130 1   
   132  126  131 1   
   133  132  133 1   
   134  132  137 1   
   135  133  134 1   
   136  133  136 1   
   137  133  138 1   
   138  134  135 2   
   139  134  142 1   
   140  136  139 1   
   141  136  140 1   
   142  136  141 1   
   143  142  143 1   
   144  142  147 1   
   145  143  144 1   
   146  143  146 1   
   147  143  148 1   
   148  144  145 2   
   149  144  152 1   
   150  146  149 1   
   151  146  150 1   
   152  146  151 1   
   153  152  153 1   
   154  152  161 1   
   155  153  154 1   
   156  153  156 1   
   157  153  162 1   
   158  154  155 2   
   159  154  167 1   
   160  156  157 1   
   161  156  163 1   
   162  156  164 1   
   163  157  158 1   
   164  157  165 1   
   165  157  166 1   
   166  158  159 1   
   167  158  160 1   
   168  167  168 1   
   169  167  172 1   
   170  168  169 1   
   171  168  170 1   
   172  168  171 1   
   173  174  175 1   
   174  174  176 1   
   175  177  178 1   
   176  177  179 1   
   177  180  181 1   
   178  180  182 1   
@<TRIPOS>SUBSTRUCTURE
     1 MOL         1 TEMP              0 ****  ****    0 ROOT
