@<TRIPOS>MOLECULE
MOL
  186   183     1     0     0
SMALL
resp


@<TRIPOS>ATOM
      1 C1         11.3050    6.1190   -2.7740 c3        1 MOL     -0.383437
      2 C2         10.9980    4.7930   -1.9630 c         1 MOL      0.801409
      3 O1         11.4150    3.7060   -2.3310 o         1 MOL     -0.625333
      4 H1         10.5970    6.8950   -2.4840 hc        1 MOL      0.095185
      5 H2         12.3190    6.4540   -2.5540 hc        1 MOL      0.095185
      6 H3         11.2100    5.9220   -3.8420 hc        1 MOL      0.095185
      7 N1         10.2940    4.8650   -0.8430 n         1 MOL     -0.297525
      8 C3         10.1190    3.6630    0.0350 c3        1 MOL     -0.808382
      9 C4          8.8270    2.8640   -0.3670 c         1 MOL      0.616681
     10 O2          7.7370    3.3810   -0.6450 o         1 MOL     -0.545820
     11 C5         10.2990    3.9770    1.4940 c3        1 MOL      0.417467
     12 C6          9.4500    5.1030    2.1040 c         1 MOL      0.717924
     13 O3         10.0040    5.8150    2.9740 o         1 MOL     -0.725208
     14 O4          8.2890    5.2790    1.6800 o         1 MOL     -0.725208
     15 H4         10.0120    5.8000   -0.5750 hn        1 MOL      0.160503
     16 H5         10.9170    2.9560   -0.2020 h1        1 MOL      0.260307
     17 H6         11.3340    4.1290    1.7970 hc        1 MOL     -0.040714
     18 H7         10.0270    3.1380    2.1440 hc        1 MOL     -0.040714
     19 N2          8.9490    1.5270   -0.2590 n         1 MOL     -0.180923
     20 C7          7.8960    0.5690   -0.7130 c3        1 MOL     -0.233106
     21 C8          6.8400    0.2920    0.4330 c         1 MOL      0.613358
     22 O5          7.2210   -0.2570    1.4460 o         1 MOL     -0.527714
     23 C9          8.6980   -0.6840   -1.1420 c3        1 MOL     -0.181641
     24 C10         7.9160   -1.7400   -1.8080 c3        1 MOL      0.140967
     25 C11         8.7100   -2.9300   -2.3980 c3        1 MOL     -0.136833
     26 C12         8.8570   -4.0400   -1.4520 c3        1 MOL      0.146106
     27 N3          9.2200   -5.3140   -2.2070 n4        1 MOL     -0.390841
     28 H8          9.8580    1.2180    0.0500 hn        1 MOL      0.218359
     29 H9          7.5040    1.0270   -1.6130 h1        1 MOL      0.178783
     30 H10         9.0770   -1.2120   -0.2680 hc        1 MOL      0.071061
     31 H11         9.5780   -0.3580   -1.7010 hc        1 MOL      0.071061
     32 H12         7.2320   -1.3050   -2.5430 hc        1 MOL     -0.005172
     33 H13         7.1910   -2.0520   -1.0540 hc        1 MOL     -0.005172
     34 H14         9.6950   -2.5640   -2.6940 hc        1 MOL      0.045708
     35 H15         8.1850   -3.2750   -3.2950 hc        1 MOL      0.045708
     36 H16         7.9330   -4.1490   -0.8850 hx        1 MOL      0.081524
     37 H17         9.5790   -3.8700   -0.6440 hx        1 MOL      0.081524
     38 H18        10.0550   -5.1710   -2.7650 hn        1 MOL      0.297872
     39 H19         9.4320   -6.0140   -1.5180 hn        1 MOL      0.297872
     40 H20         8.5120   -5.6090   -2.8690 hn        1 MOL      0.297872
     41 N4          5.5460    0.5160    0.0770 n         1 MOL     -0.563207
     42 C13         4.4260    0.4050    1.0180 c3        1 MOL      0.486129
     43 C14         3.0470    0.0150    0.3640 c         1 MOL      0.287312
     44 O6          2.8340    0.3250   -0.8080 o         1 MOL     -0.490613
     45 C15         4.2720    1.6530    1.8690 c3        1 MOL      0.211860
     46 C16         4.6360    2.9740    1.2980 c         1 MOL      0.679311
     47 O7          4.4950    3.1780    0.1000 o         1 MOL     -0.819975
     48 O8          5.2940    3.8350    1.9190 o         1 MOL     -0.819975
     49 H21         5.4260    0.8320   -0.8770 hn        1 MOL      0.278548
     50 H22         4.6430   -0.3540    1.7620 h1        1 MOL     -0.048719
     51 H23         4.9760    1.5630    2.7090 hc        1 MOL     -0.054097
     52 H24         3.2980    1.7210    2.3440 hc        1 MOL     -0.054097
     53 N5          2.0450   -0.5280    1.0730 n         1 MOL     -0.363023
     54 C17         1.9830   -0.8540    2.4770 c3        1 MOL     -0.223723
     55 C18         2.3470   -2.3500    2.8370 c         1 MOL      0.698881
     56 O9          3.1100   -2.9900    2.1350 o         1 MOL     -0.583766
     57 H25         1.2790   -0.9660    0.5840 hn        1 MOL      0.331155
     58 H26         0.9370   -0.6700    2.7250 h1        1 MOL      0.111700
     59 H27         2.6920   -0.1960    2.9800 h1        1 MOL      0.111700
     60 N6          1.7510   -2.8620    3.9010 n         1 MOL     -0.546057
     61 C19         1.9120   -4.3070    4.2640 c3        1 MOL      0.114896
     62 C20         1.2120   -5.1310    3.1930 c         1 MOL      0.357495
     63 O10         0.0480   -4.8460    2.8730 o         1 MOL     -0.478863
     64 C21         1.2900   -4.5100    5.6700 c3        1 MOL     -0.223532
     65 C22         1.3920   -5.9650    6.2880 c         1 MOL      0.688063
     66 O11         2.0600   -6.9060    5.7550 o         1 MOL     -0.648474
     67 O12         0.8140   -6.1340    7.3630 o         1 MOL     -0.648474
     68 H28         1.0930   -2.3340    4.4670 hn        1 MOL      0.294350
     69 H29         2.9590   -4.5730    4.4030 h1        1 MOL      0.039997
     70 H30         0.2410   -4.2260    5.6020 hc        1 MOL      0.076209
     71 H31         1.7770   -3.8700    6.4130 hc        1 MOL      0.076209
     72 N7          1.8820   -6.1660    2.7100 n         1 MOL     -0.142842
     73 C23         1.3270   -7.0330    1.6490 c3        1 MOL     -0.125024
     74 C24         1.2020   -6.4130    0.2470 c         1 MOL      0.524604
     75 O13         0.4620   -6.9550   -0.5390 o         1 MOL     -0.554865
     76 H32         2.7000   -6.4300    3.2390 hn        1 MOL      0.190707
     77 H33         0.3230   -7.2130    2.0230 h1        1 MOL      0.093924
     78 H34         1.8260   -8.0010    1.6310 h1        1 MOL      0.093924
     79 N8          1.8060   -5.2560    0.0430 n         1 MOL     -0.270559
     80 C25         1.6950   -4.4300   -1.1550 c3        1 MOL     -0.007270
     81 C26         0.7740   -3.2560   -0.9770 c         1 MOL      0.726372
     82 O14         0.6120   -2.6520    0.0930 o         1 MOL     -0.487215
     83 C27         3.0090   -3.9670   -1.7840 c3        1 MOL      0.349751
     84 C28         4.0540   -3.4910   -0.9090 c3        1 MOL     -0.296698
     85 O15         3.7620   -4.9460   -2.3880 oh        1 MOL     -0.623107
     86 H35         2.3530   -4.9460    0.8220 hn        1 MOL      0.130833
     87 H36         1.2010   -4.9910   -1.9400 h1        1 MOL      0.015770
     88 H37         2.7910   -3.1800   -2.5030 h1        1 MOL     -0.020732
     89 H38         3.2460   -5.1680   -3.1740 ho        1 MOL      0.363289
     90 H39         3.6140   -2.6560   -0.3590 hc        1 MOL      0.086630
     91 H40         4.4850   -4.2270   -0.2240 hc        1 MOL      0.086630
     92 H41         4.8130   -2.9640   -1.4820 hc        1 MOL      0.086630
     93 N9          0.0910   -2.8190   -2.0480 n         1 MOL     -0.718575
     94 C29        -0.5700   -1.4270   -2.1840 c3        1 MOL      0.090838
     95 C30        -2.0570   -1.3200   -1.6660 c         1 MOL      0.634709
     96 O16        -2.2450   -0.5770   -0.7240 o         1 MOL     -0.522843
     97 C31        -0.6080   -0.8890   -3.6250 c3        1 MOL      0.034878
     98 C32         0.8000   -0.9490   -4.2540 c3        1 MOL      0.187607
     99 C33        -1.2620    0.5070   -3.6760 c3        1 MOL     -0.289933
    100 C34         0.9050   -0.5740   -5.7090 c3        1 MOL     -0.534645
    101 H42         0.0950   -3.3930   -2.8820 hn        1 MOL      0.346312
    102 H43        -0.0610   -0.6950   -1.5470 h1        1 MOL      0.024409
    103 H44        -1.1690   -1.6670   -4.1580 hc        1 MOL      0.012205
    104 H45         1.0960   -1.9810   -4.0720 hc        1 MOL     -0.012010
    105 H46         1.4580   -0.2920   -3.6770 hc        1 MOL     -0.012010
    106 H47        -2.3360    0.3760   -3.5810 hc        1 MOL      0.095749
    107 H48        -0.9040    1.1530   -2.8680 hc        1 MOL      0.095749
    108 H49        -1.0390    1.1300   -4.5380 hc        1 MOL      0.095749
    109 H50         0.8270    0.5110   -5.8060 hc        1 MOL      0.132778
    110 H51         1.9360   -0.7720   -6.0140 hc        1 MOL      0.132778
    111 H52         0.1760   -1.1470   -6.2720 hc        1 MOL      0.132778
    112 N10        -3.0730   -2.0180   -2.2580 n         1 MOL     -0.592895
    113 C35        -4.4650   -2.0030   -1.6940 c3        1 MOL      0.026883
    114 C36        -5.5440   -1.6670   -2.6680 c         1 MOL      0.669761
    115 O17        -5.4640   -1.8730   -3.8970 o         1 MOL     -0.570072
    116 C37        -4.7800   -3.3400   -0.9810 c3        1 MOL      0.416836
    117 C38        -4.9210   -4.5960   -1.8180 c3        1 MOL     -0.439065
    118 O18        -3.8000   -3.5820   -0.1010 oh        1 MOL     -0.588539
    119 H53        -2.9990   -2.5850   -3.0970 hn        1 MOL      0.286466
    120 H54        -4.5510   -1.2800   -0.8810 h1        1 MOL      0.103929
    121 H55        -5.6800   -3.1130   -0.4000 h1        1 MOL      0.013299
    122 H56        -3.1440   -4.1160   -0.5520 ho        1 MOL      0.406475
    123 H57        -5.9020   -4.6210   -2.2850 hc        1 MOL      0.105305
    124 H58        -4.1610   -4.7560   -2.5890 hc        1 MOL      0.105305
    125 H59        -4.8350   -5.4160   -1.1090 hc        1 MOL      0.105305
    126 N11        -6.6260   -1.1510   -2.1060 n         1 MOL     -0.691800
    127 C39        -7.8150   -0.7730   -2.8270 c3        1 MOL      0.141677
    128 C40        -8.4800    0.4210   -2.2190 c         1 MOL      0.536620
    129 O19        -9.0800    1.1580   -2.9800 o         1 MOL     -0.565406
    130 C41        -8.7200   -2.0480   -2.8790 c3        1 MOL      0.243323
    131 C42        -9.9760   -1.7520   -3.6580 c3        1 MOL     -0.299753
    132 O20        -9.0610   -2.5650   -1.6210 oh        1 MOL     -0.668507
    133 H60        -6.5380   -1.0100   -1.1120 hn        1 MOL      0.289130
    134 H61        -7.6900   -0.6130   -3.8980 h1        1 MOL      0.102785
    135 H62        -8.2170   -2.8260   -3.4440 h1        1 MOL      0.052247
    136 H63        -9.3290   -3.4910   -1.7090 ho        1 MOL      0.421796
    137 H64        -9.5390   -1.5440   -4.6370 hc        1 MOL      0.071151
    138 H65       -10.6500   -2.6090   -3.7770 hc        1 MOL      0.071151
    139 H66       -10.5680   -0.8920   -3.3570 hc        1 MOL      0.071151
    140 N12        -8.5280    0.6570   -0.9350 n         1 MOL     -0.339702
    141 C43        -9.1280    1.7210   -0.1410 c3        1 MOL     -0.018923
    142 C44        -8.1840    2.4200    0.9080 c         1 MOL      0.301218
    143 O21        -7.7380    1.7800    1.8780 o         1 MOL     -0.470862
    144 C45       -10.3260    1.2690    0.6380 c3        1 MOL     -0.546508
    145 C46       -11.4780    0.8250   -0.2270 c3        1 MOL      0.123346
    146 C47       -12.5580    0.1460    0.6440 c3        1 MOL     -0.066411
    147 C48       -13.6080   -0.6110   -0.1470 c3        1 MOL      0.126459
    148 N13       -14.5790   -1.3940    0.5670 n4        1 MOL     -0.177650
    149 H67        -7.9990   -0.0540   -0.4340 hn        1 MOL      0.300842
    150 H68        -9.5250    2.5280   -0.7530 h1        1 MOL      0.094385
    151 H69       -10.6430    2.0450    1.3350 hc        1 MOL      0.188839
    152 H70        -9.9230    0.4430    1.2280 hc        1 MOL      0.188839
    153 H71       -11.1650    0.0640   -0.9470 hc        1 MOL      0.057670
    154 H72       -11.9140    1.5660   -0.8910 hc        1 MOL      0.057670
    155 H73       -13.0290    0.9260    1.2400 hc        1 MOL      0.042088
    156 H74       -12.1270   -0.5960    1.3170 hc        1 MOL      0.042088
    157 H75       -13.1450   -1.4140   -0.7380 hx        1 MOL      0.025977
    158 H76       -14.1790    0.0720   -0.7680 hx        1 MOL      0.025977
    159 H77       -15.2920   -0.8900    1.0760 hn        1 MOL      0.227554
    160 H78       -15.1080   -2.0160   -0.0240 hn        1 MOL      0.227554
    161 H79       -14.0720   -2.0600    1.1420 hn        1 MOL      0.227554
    162 N14        -8.0190    3.7290    0.7890 n         1 MOL     -0.175962
    163 C49        -7.3530    4.4860    1.8570 c3        1 MOL      0.220299
    164 C50        -5.8190    4.4760    1.8060 c         1 MOL      0.376992
    165 O22        -5.1510    4.3680    2.8090 o         1 MOL     -0.510331
    166 C51        -7.9300    5.9020    1.8410 c3        1 MOL      0.003028
    167 C52        -9.2380    5.9930    2.6580 c3        1 MOL     -0.316339
    168 C53        -9.9600    7.4080    2.5120 c         1 MOL      0.742038
    169 O23       -10.0070    7.9650    1.4050 o         1 MOL     -0.653817
    170 O24       -10.4120    7.9160    3.4980 o         1 MOL     -0.653817
    171 H80        -8.4590    4.3150    0.0950 hn        1 MOL      0.254271
    172 H81        -7.6650    4.0570    2.8040 h1        1 MOL      0.039676
    173 H82        -8.0730    6.1280    0.7840 hc        1 MOL      0.023973
    174 H83        -7.2670    6.6530    2.2570 hc        1 MOL      0.023973
    175 H84        -8.9820    5.7850    3.7030 hc        1 MOL      0.057526
    176 H85        -9.8740    5.1920    2.3000 hc        1 MOL      0.057526
    177 N15        -5.0770    4.5730    0.6440 n         1 MOL     -0.404188
    178 C54        -5.5740    5.0820   -0.6710 c3        1 MOL      0.033772
    179 H86        -5.8240    6.1390   -0.5800 h1        1 MOL      0.016277
    180 H87        -4.7980    4.9560   -1.4260 h1        1 MOL      0.016277
    181 H88        -6.4630    4.5230   -0.9650 h1        1 MOL      0.016277
    182 H89        -4.1180    4.2780    0.7530 hn        1 MOL      0.306406
    183 Ca1         6.1630    5.3660    0.0150 Ca        1 MOL      1.664153
    184 O25         6.3010    5.1880   -2.8130 oh        1 MOL     -0.838374
    185 H90         5.5580    5.7760   -2.9630 ho        1 MOL      0.409715
    186 H91         6.7930    5.2160   -3.6270 ho        1 MOL      0.409715
@<TRIPOS>BOND
     1    1    2 1   
     2    1    4 1   
     3    1    5 1   
     4    1    6 1   
     5    2    3 2   
     6    2    7 1   
     7    7    8 1   
     8    7   15 1   
     9    8    9 1   
    10    8   11 1   
    11    8   16 1   
    12    9   10 2   
    13    9   19 1   
    14   11   12 1   
    15   11   17 1   
    16   11   18 1   
    17   12   13 1   
    18   12   14 1   
    19   19   20 1   
    20   19   28 1   
    21   20   21 1   
    22   20   23 1   
    23   20   29 1   
    24   21   22 2   
    25   21   41 1   
    26   23   24 1   
    27   23   30 1   
    28   23   31 1   
    29   24   25 1   
    30   24   32 1   
    31   24   33 1   
    32   25   26 1   
    33   25   34 1   
    34   25   35 1   
    35   26   27 1   
    36   26   36 1   
    37   26   37 1   
    38   27   38 1   
    39   27   39 1   
    40   27   40 1   
    41   41   42 1   
    42   41   49 1   
    43   42   43 1   
    44   42   45 1   
    45   42   50 1   
    46   43   44 2   
    47   43   53 1   
    48   45   46 1   
    49   45   51 1   
    50   45   52 1   
    51   46   47 1   
    52   46   48 1   
    53   53   54 1   
    54   53   57 1   
    55   54   55 1   
    56   54   58 1   
    57   54   59 1   
    58   55   56 2   
    59   55   60 1   
    60   60   61 1   
    61   60   68 1   
    62   61   62 1   
    63   61   64 1   
    64   61   69 1   
    65   62   63 2   
    66   62   72 1   
    67   64   65 1   
    68   64   70 1   
    69   64   71 1   
    70   65   66 1   
    71   65   67 1   
    72   72   73 1   
    73   72   76 1   
    74   73   74 1   
    75   73   77 1   
    76   73   78 1   
    77   74   75 2   
    78   74   79 1   
    79   79   80 1   
    80   79   86 1   
    81   80   81 1   
    82   80   83 1   
    83   80   87 1   
    84   81   82 2   
    85   81   93 1   
    86   83   84 1   
    87   83   85 1   
    88   83   88 1   
    89   84   90 1   
    90   84   91 1   
    91   84   92 1   
    92   85   89 1   
    93   93   94 1   
    94   93  101 1   
    95   94   95 1   
    96   94   97 1   
    97   94  102 1   
    98   95   96 2   
    99   95  112 1   
   100   97   98 1   
   101   97   99 1   
   102   97  103 1   
   103   98  100 1   
   104   98  104 1   
   105   98  105 1   
   106   99  106 1   
   107   99  107 1   
   108   99  108 1   
   109  100  109 1   
   110  100  110 1   
   111  100  111 1   
   112  112  113 1   
   113  112  119 1   
   114  113  114 1   
   115  113  116 1   
   116  113  120 1   
   117  114  115 2   
   118  114  126 1   
   119  116  117 1   
   120  116  118 1   
   121  116  121 1   
   122  117  123 1   
   123  117  124 1   
   124  117  125 1   
   125  118  122 1   
   126  126  127 1   
   127  126  133 1   
   128  127  128 1   
   129  127  130 1   
   130  127  134 1   
   131  128  129 2   
   132  128  140 1   
   133  130  131 1   
   134  130  132 1   
   135  130  135 1   
   136  131  137 1   
   137  131  138 1   
   138  131  139 1   
   139  132  136 1   
   140  140  141 1   
   141  140  149 1   
   142  141  142 1   
   143  141  144 1   
   144  141  150 1   
   145  142  143 2   
   146  142  162 1   
   147  144  145 1   
   148  144  151 1   
   149  144  152 1   
   150  145  146 1   
   151  145  153 1   
   152  145  154 1   
   153  146  147 1   
   154  146  155 1   
   155  146  156 1   
   156  147  148 1   
   157  147  157 1   
   158  147  158 1   
   159  148  159 1   
   160  148  160 1   
   161  148  161 1   
   162  162  163 1   
   163  162  171 1   
   164  163  164 1   
   165  163  166 1   
   166  163  172 1   
   167  164  165 2   
   168  164  177 1   
   169  166  167 1   
   170  166  173 1   
   171  166  174 1   
   172  167  168 1   
   173  167  175 1   
   174  167  176 1   
   175  168  169 1   
   176  168  170 1   
   177  177  178 1   
   178  177  182 1   
   179  178  179 1   
   180  178  180 1   
   181  178  181 1   
   182  184  185 1   
   183  184  186 1   
@<TRIPOS>SUBSTRUCTURE
     1 MOL         1 TEMP              0 ****  ****    0 ROOT
