@<TRIPOS>MOLECULE
MOL
  192   187     1     0     0
SMALL
resp


@<TRIPOS>ATOM
      1 C1          9.2650    0.7130    1.9590 c3        1 MOL     -0.609207
      2 C2          8.2650    0.2590    0.8680 c         1 MOL      0.833504
      3 O1          7.0910    0.4220    1.0250 o         1 MOL     -0.689210
      4 H1          8.9360    0.3430    2.9310 hc        1 MOL      0.151651
      5 H2         10.2540    0.3120    1.7360 hc        1 MOL      0.151651
      6 H3          9.3110    1.8020    1.9820 hc        1 MOL      0.151651
      7 N1          8.6810   -0.2850   -0.2670 n         1 MOL     -0.450213
      8 C3          7.8910   -0.6580   -1.4680 c3        1 MOL     -0.212786
      9 C4          6.7700   -1.7570   -1.3190 c         1 MOL      0.484504
     10 O2          6.2020   -2.2870   -2.2550 o         1 MOL     -0.420099
     11 C5          8.9220   -0.8670   -2.5500 c3        1 MOL     -0.026094
     12 C6         10.3260   -1.4060   -2.2320 c         1 MOL      0.724236
     13 O3         11.3040   -1.0800   -2.9500 o         1 MOL     -0.677583
     14 O4         10.4180   -2.3490   -1.3810 o         1 MOL     -0.677583
     15 H4          9.5860   -0.7480   -0.2050 hn        1 MOL      0.175861
     16 H5          7.3360    0.2480   -1.7390 h1        1 MOL      0.192360
     17 H6          9.1030    0.1320   -2.9260 hc        1 MOL      0.019774
     18 H7          8.4710   -1.3650   -3.4030 hc        1 MOL      0.019774
     19 N2          6.4790   -2.1810   -0.0290 n         1 MOL     -0.290571
     20 C7          5.9150   -3.5260    0.2870 c3        1 MOL     -0.070516
     21 C8          4.4770   -3.6700   -0.1940 c         1 MOL      0.535227
     22 O5          4.1930   -4.6100   -0.9200 o         1 MOL     -0.555393
     23 C9          6.0550   -3.8370    1.8070 c3        1 MOL     -0.001356
     24 C10         7.5130   -4.1080    2.1500 c3        1 MOL      0.210476
     25 C11         7.6400   -4.4500    3.6430 c3        1 MOL     -0.395089
     26 C12         9.1150   -4.3870    4.0590 c3        1 MOL      0.321772
     27 N3          9.1230   -4.8130    5.4830 n4        1 MOL     -0.324978
     28 H8          6.7840   -1.6430    0.7680 hn        1 MOL      0.252350
     29 H9          6.4510   -4.2750   -0.2870 h1        1 MOL      0.113597
     30 H10         5.3570   -4.6410    2.0720 hc        1 MOL      0.016325
     31 H11         5.7280   -2.9840    2.4020 hc        1 MOL      0.016325
     32 H12         7.9350   -3.1030    2.0620 hc        1 MOL     -0.021195
     33 H13         7.9170   -4.7800    1.3860 hc        1 MOL     -0.021195
     34 H14         7.4010   -5.5030    3.7660 hc        1 MOL      0.105859
     35 H15         7.0400   -3.7240    4.1870 hc        1 MOL      0.105859
     36 H16         9.5460   -3.3910    4.1350 hx        1 MOL      0.019948
     37 H17         9.7990   -4.9080    3.3840 hx        1 MOL      0.019948
     38 H18         9.9670   -4.5660    5.9560 hn        1 MOL      0.270301
     39 H19         8.3570   -4.4360    6.0190 hn        1 MOL      0.270301
     40 H20         8.9830   -5.8090    5.5390 hn        1 MOL      0.270301
     41 N4          3.4830   -2.8780    0.1640 n         1 MOL     -0.471104
     42 C13         3.6230   -1.6010    0.9140 c3        1 MOL     -0.004345
     43 C14         3.8560   -0.4510   -0.0540 c         1 MOL      0.525806
     44 O6          3.9180   -0.6260   -1.2990 o         1 MOL     -0.463299
     45 C15         2.4790   -1.4550    1.8690 c3        1 MOL     -0.085737
     46 C16         1.1720   -1.6670    1.1190 c         1 MOL      0.744577
     47 O7          0.8860   -0.9780    0.1100 o         1 MOL     -0.726966
     48 O8          0.4020   -2.5980    1.4970 o         1 MOL     -0.726966
     49 H21         2.6020   -3.1430   -0.2480 hn        1 MOL      0.359988
     50 H22         4.5460   -1.6200    1.4980 h1        1 MOL      0.018346
     51 H23         2.5020   -0.4900    2.3670 hc        1 MOL      0.017103
     52 H24         2.5820   -2.2450    2.6170 hc        1 MOL      0.017103
     53 N5          4.0920    0.7260    0.5330 n         1 MOL     -0.302335
     54 C17         4.3190    2.0320   -0.1180 c3        1 MOL     -0.076206
     55 C18         3.0640    2.5960   -0.7580 c         1 MOL      0.796819
     56 O9          1.9780    2.0030   -0.6410 o         1 MOL     -0.856629
     57 H25         4.2270    0.7010    1.5380 hn        1 MOL      0.247973
     58 H26         5.0370    1.8380   -0.9160 h1        1 MOL      0.056805
     59 H27         4.7360    2.6920    0.6410 h1        1 MOL      0.056805
     60 N6          3.1610    3.8120   -1.3510 n         1 MOL     -0.447236
     61 C19         2.1610    4.6000   -2.0450 c3        1 MOL      0.291281
     62 C20         2.5030    6.1400   -1.9560 c         1 MOL      0.433697
     63 O10         3.6860    6.4370   -1.7150 o         1 MOL     -0.513975
     64 C21         2.0360    4.1760   -3.5320 c3        1 MOL     -0.554201
     65 C22         1.7430    2.6670   -3.7030 c         1 MOL      0.756546
     66 O11         0.6720    2.2420   -3.2140 o         1 MOL     -0.644439
     67 O12         2.5280    1.9500   -4.3220 o         1 MOL     -0.644439
     68 H28         4.0560    4.2710   -1.3070 hn        1 MOL      0.241139
     69 H29         1.2430    4.5000   -1.4690 h1        1 MOL      0.076315
     70 H30         2.9830    4.4250   -4.0030 hc        1 MOL      0.138923
     71 H31         1.2420    4.7930   -3.9610 hc        1 MOL      0.138923
     72 N7          1.5350    7.1040   -2.1270 n         1 MOL     -0.430759
     73 C23         0.0780    6.8900   -2.3600 c3        1 MOL     -0.111649
     74 C24        -0.6730    6.4730   -1.1170 c         1 MOL      0.649699
     75 O13        -0.5600    7.0000   -0.0220 o         1 MOL     -0.537369
     76 H32         1.8730    8.0500   -2.0590 hn        1 MOL      0.315684
     77 H33        -0.0810    6.1510   -3.1430 h1        1 MOL      0.091314
     78 H34        -0.3160    7.8460   -2.7220 h1        1 MOL      0.091314
     79 N8         -1.5960    5.5510   -1.3720 n         1 MOL     -0.631016
     80 C25        -2.4600    4.9780   -0.2950 c3        1 MOL      0.067633
     81 C26        -1.6840    3.8980    0.3930 c         1 MOL      1.060450
     82 O14        -0.9290    3.1590   -0.2270 o         1 MOL     -0.862441
     83 C27        -3.8470    4.5160   -0.8370 c3        1 MOL      0.439877
     84 C28        -4.7540    4.0510    0.3180 c3        1 MOL     -0.481027
     85 O15        -3.7520    3.3590   -1.5960 oh        1 MOL     -0.728138
     86 H35        -1.5620    5.0650   -2.2640 hn        1 MOL      0.298569
     87 H36        -2.6960    5.7500    0.4390 h1        1 MOL      0.042089
     88 H37        -4.2200    5.3600   -1.4190 h1        1 MOL      0.004764
     89 H38        -4.0590    3.5740   -2.4810 ho        1 MOL      0.441155
     90 H39        -4.6730    4.7230    1.1650 hc        1 MOL      0.128998
     91 H40        -5.7860    3.9200    0.0040 hc        1 MOL      0.128998
     92 H41        -4.4650    3.0920    0.7310 hc        1 MOL      0.128998
     93 N9         -1.7570    3.8730    1.7220 n         1 MOL     -0.901456
     94 C29        -0.9420    2.9990    2.6180 c3        1 MOL      0.125978
     95 C30        -1.3020    1.5230    2.3490 c         1 MOL      0.302151
     96 O16        -0.8270    0.8900    1.4100 o         1 MOL     -0.499014
     97 C31         0.5840    3.3120    2.4470 c3        1 MOL      0.133998
     98 C32         0.9480    4.8220    2.5390 c3        1 MOL     -0.158020
     99 C33         1.3630    2.4650    3.4770 c3        1 MOL     -0.526408
    100 C34         2.4930    5.0950    2.4360 c3        1 MOL     -0.204055
    101 H42        -2.3730    4.4700    2.2430 hn        1 MOL      0.384142
    102 H43        -1.1070    3.2910    3.6590 h1        1 MOL      0.058748
    103 H44         0.7660    2.9220    1.4480 hc        1 MOL      0.216085
    104 H45         0.7240    5.2590    3.5150 hc        1 MOL      0.062739
    105 H46         0.5380    5.3970    1.7130 hc        1 MOL      0.062739
    106 H47         1.0740    1.4130    3.4170 hc        1 MOL      0.132548
    107 H48         2.4350    2.4870    3.2560 hc        1 MOL      0.132548
    108 H49         1.0620    2.8670    4.4450 hc        1 MOL      0.132548
    109 H50         2.9410    4.6580    3.3300 hc        1 MOL      0.064128
    110 H51         2.8980    4.5600    1.5820 hc        1 MOL      0.064128
    111 H52         2.7160    6.1530    2.5000 hc        1 MOL      0.064128
    112 N10        -2.2830    1.0020    3.0660 n         1 MOL     -0.143236
    113 C35        -2.7660   -0.3900    2.9890 c3        1 MOL     -0.202790
    114 C36        -4.2800   -0.6260    3.0030 c         1 MOL      0.521137
    115 O17        -4.8080   -1.7050    3.2980 o         1 MOL     -0.534670
    116 C37        -2.1360   -1.2450    4.1230 c3        1 MOL      0.476443
    117 C38        -2.4460   -0.7960    5.4690 c3        1 MOL     -0.186270
    118 O18        -0.7680   -1.3150    4.0830 oh        1 MOL     -0.613779
    119 H53        -2.6330    1.5740    3.8270 hn        1 MOL      0.224414
    120 H54        -2.4280   -0.8860    2.0760 h1        1 MOL      0.103673
    121 H55        -2.5910   -2.2270    4.0690 h1        1 MOL     -0.013146
    122 H56        -0.4520   -1.5530    3.2120 ho        1 MOL      0.365017
    123 H57        -1.8340   -1.3830    6.1440 hc        1 MOL      0.030327
    124 H58        -2.2390    0.2690    5.5910 hc        1 MOL      0.030327
    125 H59        -3.5030   -0.9330    5.6920 hc        1 MOL      0.030327
    126 N11        -5.1160    0.4250    2.7660 n         1 MOL     -0.262754
    127 C39        -6.5990    0.3410    2.6510 c3        1 MOL      0.029407
    128 C40        -6.9580   -0.4150    1.3470 c         1 MOL      0.516646
    129 O19        -7.5290    0.2030    0.4500 o         1 MOL     -0.527551
    130 C41        -7.2600    1.7200    2.7060 c3        1 MOL      0.408392
    131 C42        -8.8040    1.5870    2.8560 c3        1 MOL     -0.370536
    132 O20        -6.7680    2.5150    3.7860 oh        1 MOL     -0.656399
    133 H60        -4.8850    1.3660    2.4810 hn        1 MOL      0.131255
    134 H61        -6.8480   -0.1740    3.5820 h1        1 MOL      0.080013
    135 H62        -6.9860    2.2610    1.7950 h1        1 MOL     -0.035433
    136 H63        -7.1930    3.3680    3.7740 ho        1 MOL      0.416422
    137 H64        -9.2660    2.5380    3.1270 hc        1 MOL      0.094204
    138 H65        -9.2710    1.1070    2.0040 hc        1 MOL      0.094204
    139 H66        -8.9900    0.8820    3.6620 hc        1 MOL      0.094204
    140 N12        -6.7190   -1.7180    1.2360 n         1 MOL     -0.733521
    141 C43        -6.6390   -2.6430    0.0710 c3        1 MOL      0.357208
    142 C44        -5.2500   -2.3440   -0.5750 c         1 MOL      0.559019
    143 O21        -4.5910   -1.4360   -0.2080 o         1 MOL     -0.470702
    144 C45        -7.8000   -2.5540   -0.9930 c3        1 MOL     -0.455312
    145 C46        -9.1600   -2.8510   -0.2020 c3        1 MOL      0.150320
    146 C47       -10.4290   -3.0930   -1.0950 c3        1 MOL      0.061365
    147 C48       -11.6730   -3.2300   -0.2470 c3        1 MOL      0.086848
    148 N13       -12.9030   -3.0570   -1.1150 n4        1 MOL     -0.180834
    149 H67        -6.2910   -2.1740    2.0340 hn        1 MOL      0.346315
    150 H68        -6.5840   -3.6510    0.4630 h1        1 MOL      0.043919
    151 H69        -7.6050   -3.2970   -1.7760 hc        1 MOL      0.137462
    152 H70        -7.9860   -1.5560   -1.3700 hc        1 MOL      0.137462
    153 H71        -9.4020   -2.0780    0.5190 hc        1 MOL      0.008495
    154 H72        -9.0310   -3.7850    0.3470 hc        1 MOL      0.008495
    155 H73       -10.3400   -4.0090   -1.6760 hc        1 MOL     -0.005304
    156 H74       -10.7060   -2.3100   -1.7980 hc        1 MOL     -0.005304
    157 H75       -11.5360   -2.5210    0.5710 hx        1 MOL      0.033325
    158 H76       -11.7390   -4.2030    0.2460 hx        1 MOL      0.033325
    159 H77       -13.7160   -3.2460   -0.5440 hn        1 MOL      0.213860
    160 H78       -13.0340   -2.0970   -1.3950 hn        1 MOL      0.213860
    161 H79       -12.9340   -3.6370   -1.9430 hn        1 MOL      0.213860
    162 N14        -4.6730   -3.2150   -1.4360 n         1 MOL     -0.516812
    163 C49        -3.4400   -2.9770   -2.1760 c3        1 MOL      0.005573
    164 C50        -2.1470   -2.6360   -1.2830 c         1 MOL      0.434786
    165 O22        -1.4230   -1.7340   -1.6860 o         1 MOL     -0.584134
    166 C51        -3.2400   -4.2980   -2.9930 c3        1 MOL      0.013534
    167 C52        -3.9220   -4.2000   -4.3810 c3        1 MOL     -0.451440
    168 C53        -3.9120   -5.5290   -5.0710 c         1 MOL      0.673148
    169 O23        -4.7030   -6.4580   -4.7940 o         1 MOL     -0.627653
    170 O24        -2.8590   -5.6990   -5.7430 o         1 MOL     -0.627653
    171 H80        -4.9710   -4.1770   -1.3730 hn        1 MOL      0.263422
    172 H81        -3.5580   -2.1500   -2.8740 h1        1 MOL      0.091142
    173 H82        -3.5620   -5.2350   -2.5280 hc        1 MOL      0.104875
    174 H83        -2.1600   -4.4310   -3.1380 hc        1 MOL      0.104875
    175 H84        -3.2410   -3.5330   -4.9110 hc        1 MOL      0.117138
    176 H85        -4.8530   -3.6350   -4.4880 hc        1 MOL      0.117138
    177 N15        -2.0400   -3.2260   -0.1310 n         1 MOL     -0.251481
    178 C54        -2.5560   -4.5690    0.3130 c3        1 MOL      0.011075
    179 H86        -3.3340   -4.4290    1.0620 h1        1 MOL      0.022006
    180 H87        -2.9700   -5.1010   -0.5440 h1        1 MOL      0.022006
    181 H88        -1.7390   -5.1490    0.7420 h1        1 MOL      0.022006
    182 H89        -1.3170   -2.8120    0.4480 hn        1 MOL      0.328743
    183 Ca1        -0.4440    0.7050   -1.2760 Ca        1 MOL      1.851063
    184 O25        -1.9470    0.9400   -3.3940 oh        1 MOL     -0.876403
    185 H90        -2.8870    0.8920   -3.2630 ho        1 MOL      0.417715
    186 H91        -1.8350    1.2190   -4.3040 ho        1 MOL      0.417715
    187 O26        -2.9470    0.7610   -0.6170 oh        1 MOL     -0.876403
    188 H92        -3.6440    0.0980   -0.5380 ho        1 MOL      0.417715
    189 H93        -3.3910    1.5320   -0.9630 ho        1 MOL      0.417715
    190 O27         1.3460   -0.2680   -3.1190 oh        1 MOL     -0.876403
    191 H94         2.1690   -0.5520   -2.7200 ho        1 MOL      0.417715
    192 H95         1.5340    0.5980   -3.4890 ho        1 MOL      0.417715
@<TRIPOS>BOND
     1    1    2 1   
     2    1    4 1   
     3    1    5 1   
     4    1    6 1   
     5    2    3 2   
     6    2    7 1   
     7    7    8 1   
     8    7   15 1   
     9    8    9 1   
    10    8   11 1   
    11    8   16 1   
    12    9   10 2   
    13    9   19 1   
    14   11   12 1   
    15   11   17 1   
    16   11   18 1   
    17   12   13 1   
    18   12   14 1   
    19   19   20 1   
    20   19   28 1   
    21   20   21 1   
    22   20   23 1   
    23   20   29 1   
    24   21   22 2   
    25   21   41 1   
    26   23   24 1   
    27   23   30 1   
    28   23   31 1   
    29   24   25 1   
    30   24   32 1   
    31   24   33 1   
    32   25   26 1   
    33   25   34 1   
    34   25   35 1   
    35   26   27 1   
    36   26   36 1   
    37   26   37 1   
    38   27   38 1   
    39   27   39 1   
    40   27   40 1   
    41   41   42 1   
    42   41   49 1   
    43   42   43 1   
    44   42   45 1   
    45   42   50 1   
    46   43   44 2   
    47   43   53 1   
    48   45   46 1   
    49   45   51 1   
    50   45   52 1   
    51   46   47 1   
    52   46   48 1   
    53   53   54 1   
    54   53   57 1   
    55   54   55 1   
    56   54   58 1   
    57   54   59 1   
    58   55   56 2   
    59   55   60 1   
    60   60   61 1   
    61   60   68 1   
    62   61   62 1   
    63   61   64 1   
    64   61   69 1   
    65   62   63 2   
    66   62   72 1   
    67   64   65 1   
    68   64   70 1   
    69   64   71 1   
    70   65   66 1   
    71   65   67 1   
    72   72   73 1   
    73   72   76 1   
    74   73   74 1   
    75   73   77 1   
    76   73   78 1   
    77   74   75 2   
    78   74   79 1   
    79   79   80 1   
    80   79   86 1   
    81   80   81 1   
    82   80   83 1   
    83   80   87 1   
    84   81   82 2   
    85   81   93 1   
    86   83   84 1   
    87   83   85 1   
    88   83   88 1   
    89   84   90 1   
    90   84   91 1   
    91   84   92 1   
    92   85   89 1   
    93   93   94 1   
    94   93  101 1   
    95   94   95 1   
    96   94   97 1   
    97   94  102 1   
    98   95   96 2   
    99   95  112 1   
   100   97   98 1   
   101   97   99 1   
   102   97  103 1   
   103   98  100 1   
   104   98  104 1   
   105   98  105 1   
   106   99  106 1   
   107   99  107 1   
   108   99  108 1   
   109  100  109 1   
   110  100  110 1   
   111  100  111 1   
   112  112  113 1   
   113  112  119 1   
   114  113  114 1   
   115  113  116 1   
   116  113  120 1   
   117  114  115 2   
   118  114  126 1   
   119  116  117 1   
   120  116  118 1   
   121  116  121 1   
   122  117  123 1   
   123  117  124 1   
   124  117  125 1   
   125  118  122 1   
   126  126  127 1   
   127  126  133 1   
   128  127  128 1   
   129  127  130 1   
   130  127  134 1   
   131  128  129 2   
   132  128  140 1   
   133  130  131 1   
   134  130  132 1   
   135  130  135 1   
   136  131  137 1   
   137  131  138 1   
   138  131  139 1   
   139  132  136 1   
   140  140  141 1   
   141  140  149 1   
   142  141  142 1   
   143  141  144 1   
   144  141  150 1   
   145  142  143 2   
   146  142  162 1   
   147  144  145 1   
   148  144  151 1   
   149  144  152 1   
   150  145  146 1   
   151  145  153 1   
   152  145  154 1   
   153  146  147 1   
   154  146  155 1   
   155  146  156 1   
   156  147  148 1   
   157  147  157 1   
   158  147  158 1   
   159  148  159 1   
   160  148  160 1   
   161  148  161 1   
   162  162  163 1   
   163  162  171 1   
   164  163  164 1   
   165  163  166 1   
   166  163  172 1   
   167  164  165 2   
   168  164  177 1   
   169  166  167 1   
   170  166  173 1   
   171  166  174 1   
   172  167  168 1   
   173  167  175 1   
   174  167  176 1   
   175  168  169 1   
   176  168  170 1   
   177  177  178 1   
   178  177  182 1   
   179  178  179 1   
   180  178  180 1   
   181  178  181 1   
   182  184  185 1   
   183  184  186 1   
   184  187  188 1   
   185  187  189 1   
   186  190  191 1   
   187  190  192 1   
@<TRIPOS>SUBSTRUCTURE
     1 MOL         1 TEMP              0 ****  ****    0 ROOT
