@<TRIPOS>MOLECULE
MOL
  182   178     1     0     0
SMALL
resp


@<TRIPOS>ATOM
      1 C1          0.6930   -3.5990    6.2010 c3        1 MOL     -0.366766
      2 C2          0.6860   -3.4860    4.6380 c         1 MOL      0.694864
      3 O1         -0.3890   -3.3950    4.0320 o         1 MOL     -0.550600
      4 H1         -0.2980   -3.3620    6.5860 hc        1 MOL      0.107708
      5 H2          0.9610   -4.6150    6.4910 hc        1 MOL      0.107708
      6 H3          1.4190   -2.8990    6.6130 hc        1 MOL      0.107708
      7 N1          1.8750   -3.5790    4.0460 n         1 MOL     -0.498840
      8 C3          2.1950   -3.3070    2.6340 c3        1 MOL     -0.020947
      9 C4          2.2730   -4.5850    1.6920 c         1 MOL      0.570195
     10 O2          2.8320   -5.5840    2.0990 o         1 MOL     -0.543997
     11 C5          3.4750   -2.4100    2.6170 c3        1 MOL     -0.141195
     12 C6          3.6000   -1.6000    1.3280 c         1 MOL      0.551288
     13 O3          4.0990   -0.4520    1.3210 o         1 MOL     -0.686196
     14 O4          3.2350   -2.1610    0.2670 o         1 MOL     -0.686196
     15 H4          2.6030   -3.8770    4.6800 hn        1 MOL      0.295898
     16 H5          1.3340   -2.6890    2.3870 h1        1 MOL      0.047469
     17 H6          4.4240   -2.9410    2.6630 hc        1 MOL      0.078865
     18 H7          3.4560   -1.7230    3.4610 hc        1 MOL      0.078865
     19 N2          1.7760   -4.5660    0.4310 n         1 MOL     -0.313032
     20 C7          1.8800   -5.6160   -0.6290 c3        1 MOL      0.142331
     21 C8          3.2230   -5.4420   -1.4750 c         1 MOL      0.545784
     22 O5          3.5830   -6.4130   -2.1610 o         1 MOL     -0.574079
     23 C9          0.5490   -5.5120   -1.4750 c3        1 MOL     -0.016002
     24 C10         0.2130   -6.9540   -1.9030 c3        1 MOL      0.033210
     25 C11        -1.0640   -6.8600   -2.7050 c3        1 MOL      0.018938
     26 C12        -1.4890   -8.2850   -3.1710 c3        1 MOL     -0.016227
     27 N3         -2.8740   -8.3440   -3.6230 n4        1 MOL     -0.073260
     28 H8          1.4960   -3.6600    0.1020 hn        1 MOL      0.078747
     29 H9          1.9650   -6.5670   -0.1050 h1        1 MOL      0.038932
     30 H10         0.7240   -4.8080   -2.2830 hc        1 MOL      0.005556
     31 H11        -0.2160   -5.1150   -0.8150 hc        1 MOL      0.005556
     32 H12         0.0280   -7.5280   -1.0000 hc        1 MOL      0.016212
     33 H13         0.9700   -7.5090   -2.4520 hc        1 MOL      0.016212
     34 H14        -0.8930   -6.2730   -3.6010 hc        1 MOL      0.016644
     35 H15        -1.9270   -6.5250   -2.1350 hc        1 MOL      0.016644
     36 H16        -1.4830   -8.9600   -2.3040 hx        1 MOL      0.066916
     37 H17        -0.7240   -8.5940   -3.8830 hx        1 MOL      0.066916
     38 H18        -3.0010   -9.0940   -4.2840 hn        1 MOL      0.187582
     39 H19        -3.5140   -8.6300   -2.8870 hn        1 MOL      0.187582
     40 H20        -3.2930   -7.4790   -3.9230 hn        1 MOL      0.187582
     41 N4          3.9360   -4.3420   -1.3260 n         1 MOL     -0.401597
     42 C13         5.1170   -3.9740   -2.1030 c3        1 MOL      0.015368
     43 C14         6.2640   -3.2070   -1.2090 c         1 MOL      0.462016
     44 O6          7.3180   -2.7630   -1.6950 o         1 MOL     -0.535141
     45 C15         4.7460   -3.0710   -3.2550 c3        1 MOL     -0.257845
     46 C16         4.0600   -1.8160   -2.7280 c         1 MOL      0.641321
     47 O7          2.8160   -1.6350   -2.6900 o         1 MOL     -0.736128
     48 O8          4.7600   -0.9130   -2.1160 o         1 MOL     -0.736128
     49 H21         3.6260   -3.6570   -0.6490 hn        1 MOL      0.251917
     50 H22         5.7650   -4.7900   -2.4320 h1        1 MOL      0.118696
     51 H23         4.0510   -3.5650   -3.9230 hc        1 MOL      0.107511
     52 H24         5.6690   -3.0240   -3.8310 hc        1 MOL      0.107511
     53 N5          6.0870   -3.1380    0.0870 n         1 MOL     -0.261857
     54 C17         7.0350   -2.5400    1.0090 c3        1 MOL      0.020020
     55 C18         7.5100   -1.0530    0.7390 c         1 MOL      0.548447
     56 O9          8.6080   -0.7670    1.2330 o         1 MOL     -0.567888
     57 H25         5.1270   -3.2910    0.3550 hn        1 MOL      0.154254
     58 H26         7.8560   -3.2390    1.1730 h1        1 MOL      0.058074
     59 H27         6.4350   -2.4470    1.9220 h1        1 MOL      0.058074
     60 N6          6.8400   -0.2150   -0.0320 n         1 MOL     -0.379138
     61 C19         7.2850    1.1490   -0.1850 c3        1 MOL      0.217154
     62 C20         6.1470    2.1120   -0.5720 c         1 MOL      0.539507
     63 O10         5.0230    1.5740   -0.7740 o         1 MOL     -0.546576
     64 C21         8.4970    1.1670   -1.1350 c3        1 MOL     -0.282859
     65 C22         9.4420    2.3300   -1.0690 c         1 MOL      0.674031
     66 N7         10.4850    2.2570   -1.8660 n         1 MOL     -0.781190
     67 O11         9.3060    3.1930   -0.2100 o         1 MOL     -0.549987
     68 H28         5.9860   -0.3980   -0.5410 hn        1 MOL      0.358737
     69 H29         7.5680    1.4440    0.8210 h1        1 MOL      0.043377
     70 H30         8.0960    1.0430   -2.1490 hc        1 MOL      0.082177
     71 H31         9.1290    0.3070   -0.9080 hc        1 MOL      0.082177
     72 H32        10.5510    1.5440   -2.5840 hn        1 MOL      0.368658
     73 H33        11.1910    2.9650   -1.7620 hn        1 MOL      0.368658
     74 N8          6.3860    3.4100   -0.6670 n         1 MOL     -0.508647
     75 C23         5.4460    4.4610   -0.9510 c3        1 MOL      0.178876
     76 C24         4.3970    4.6980    0.1590 c         1 MOL      0.427535
     77 O12         4.6970    4.6130    1.3380 o         1 MOL     -0.458701
     78 H34         7.3650    3.6420   -0.5170 hn        1 MOL      0.275474
     79 H35         4.7960    4.2720   -1.8160 h1        1 MOL      0.024752
     80 H36         5.9080    5.3700   -1.3170 h1        1 MOL      0.024752
     81 N9          3.0910    5.0400   -0.2300 n         1 MOL     -0.545815
     82 C25         1.9940    4.8700    0.6810 c3        1 MOL      0.317659
     83 C26         1.7240    3.4250    1.1310 c         1 MOL      0.720954
     84 O13         2.2240    2.4790    0.5170 o         1 MOL     -0.614958
     85 C27         0.6320    5.4060    0.0290 c3        1 MOL     -0.218400
     86 C28         0.6420    6.8050   -0.6510 ca        1 MOL      0.115709
     87 C29         1.2370    7.8800   -0.0480 ca        1 MOL     -0.173330
     88 C30         0.1720    6.9610   -1.9690 ca        1 MOL     -0.173330
     89 C31         1.3840    9.0770   -0.7770 ca        1 MOL     -0.255812
     90 C32         0.1580    8.2060   -2.6430 ca        1 MOL     -0.255812
     91 C33         0.6930    9.3010   -1.9940 ca        1 MOL      0.343780
     92 O14         0.7450   10.5070   -2.6670 oh        1 MOL     -0.498226
     93 H37         2.8980    5.1770   -1.2150 hn        1 MOL      0.289575
     94 H38         2.2130    5.4910    1.5520 h1        1 MOL      0.029412
     95 H39        -0.1420    5.4430    0.7970 hc        1 MOL      0.045859
     96 H40         0.3140    4.6700   -0.7050 hc        1 MOL      0.045859
     97 H41         1.6370    7.7870    0.9570 ha        1 MOL      0.130461
     98 H42        -0.3630    6.1370   -2.4370 ha        1 MOL      0.130461
     99 H43         2.0070    9.8560   -0.3680 ha        1 MOL      0.159484
    100 H44        -0.2940    8.2430   -3.6210 ha        1 MOL      0.159484
    101 H45         0.2960   10.5330   -3.5210 ho        1 MOL      0.372763
    102 N10         0.8900    3.2420    2.2070 n         1 MOL     -0.838889
    103 C34         0.2740    2.0000    2.7470 c3        1 MOL      0.244920
    104 C35        -0.0710    0.9650    1.6720 c         1 MOL      0.426473
    105 O15         0.8530    0.2450    1.1920 o         1 MOL     -0.291972
    106 C36         1.2680    1.4550    3.8300 c3        1 MOL      0.032718
    107 C37         0.9420    0.0860    4.4770 c3        1 MOL     -0.308123
    108 C38         1.3720    2.4540    4.9790 c3        1 MOL     -0.211304
    109 C39        -0.4090    0.0890    5.2970 c3        1 MOL     -0.135738
    110 H46         0.4420    4.0400    2.6380 hn        1 MOL      0.359407
    111 H47        -0.6370    2.3200    3.2400 h1        1 MOL      0.054825
    112 H48         2.2080    1.4620    3.2790 hc        1 MOL      0.091719
    113 H49         1.7120   -0.2960    5.1490 hc        1 MOL      0.122892
    114 H50         0.8610   -0.6580    3.6840 hc        1 MOL      0.122892
    115 H51         2.0100    2.0450    5.7610 hc        1 MOL      0.064362
    116 H52         1.7480    3.4210    4.6220 hc        1 MOL      0.064362
    117 H53         0.3740    2.7230    5.3520 hc        1 MOL      0.064362
    118 H54        -0.1760    0.5170    6.2740 hc        1 MOL      0.045361
    119 H55        -1.1260    0.7780    4.8480 hc        1 MOL      0.045361
    120 H56        -0.8250   -0.9130    5.4170 hc        1 MOL      0.045361
    121 N11        -1.3680    0.6680    1.5160 n         1 MOL     -0.534117
    122 C40        -1.7930   -0.4810    0.7160 c3        1 MOL      0.076877
    123 C41        -3.3230   -0.5130    0.2340 c         1 MOL      0.626946
    124 O16        -3.8070   -1.4390   -0.4190 o         1 MOL     -0.548980
    125 C42        -1.3960   -1.8090    1.3640 c3        1 MOL      0.207584
    126 O17        -1.9760   -1.8430    2.7330 oh        1 MOL     -0.586796
    127 H57        -1.9590    1.1540    2.1630 hn        1 MOL      0.302833
    128 H58        -1.2120   -0.4470   -0.2100 h1        1 MOL     -0.033416
    129 H59        -0.3060   -1.8500    1.3950 h1        1 MOL      0.014035
    130 H60        -1.7110   -2.6350    0.7240 h1        1 MOL      0.014035
    131 H61        -1.4240   -2.5150    3.1600 ho        1 MOL      0.368527
    132 N12        -4.2380    0.3620    0.7080 n         1 MOL     -0.539371
    133 C43        -5.6710    0.5480    0.1950 c3        1 MOL      0.000656
    134 C44        -5.8070    0.8690   -1.3160 c         1 MOL      0.581213
    135 O18        -4.8620    1.3370   -1.9990 o         1 MOL     -0.554279
    136 C45        -6.3310    1.6540    0.9840 c3        1 MOL     -0.256044
    137 H62        -3.9880    1.0060    1.4450 hn        1 MOL      0.307766
    138 H63        -6.1210   -0.4100    0.4330 h1        1 MOL      0.158355
    139 H64        -5.7710    2.5910    1.0300 hc        1 MOL      0.094658
    140 H65        -7.3510    1.7880    0.6370 hc        1 MOL      0.094658
    141 H66        -6.3550    1.3420    2.0290 hc        1 MOL      0.094658
    142 N13        -6.9140    0.5060   -2.0230 n         1 MOL     -0.536433
    143 C46        -8.1460   -0.1490   -1.5380 c3        1 MOL      0.226958
    144 C47        -9.4600    0.5210   -2.1630 c         1 MOL      0.458207
    145 O19        -9.6310    0.5950   -3.4130 o         1 MOL     -0.520277
    146 C48        -8.0770   -1.6760   -1.8110 c3        1 MOL     -0.136688
    147 H67        -6.9460    0.7540   -3.0010 hn        1 MOL      0.311665
    148 H68        -8.1910    0.0720   -0.4760 h1        1 MOL     -0.018275
    149 H69        -8.9740   -2.2130   -1.5160 hc        1 MOL      0.050064
    150 H70        -8.0270   -1.8700   -2.8840 hc        1 MOL      0.050064
    151 H71        -7.2860   -2.1890   -1.2680 hc        1 MOL      0.050064
    152 N14       -10.4340    0.9610   -1.3580 n         1 MOL     -0.626601
    153 C49       -10.5880    0.7050    0.1090 c3        1 MOL      0.169510
    154 C50       -10.1470    1.8420    1.0000 c         1 MOL      0.407827
    155 O20        -9.8780    1.5040    2.1470 o         1 MOL     -0.530535
    156 C51       -12.0050    0.2250    0.4000 c3        1 MOL     -0.051582
    157 C52       -12.3470   -1.0560   -0.2980 c3        1 MOL     -0.262793
    158 C53       -13.8170   -1.3260   -0.1350 c         1 MOL      0.679332
    159 O21       -14.2140   -2.3770    0.4390 o         1 MOL     -0.628272
    160 O22       -14.7230   -0.6600   -0.7360 o         1 MOL     -0.628272
    161 H72       -11.2240    1.3660   -1.8360 hn        1 MOL      0.372803
    162 H73        -9.9440   -0.1370    0.3860 h1        1 MOL      0.065278
    163 H74       -12.7260    0.9920    0.1020 hc        1 MOL      0.043126
    164 H75       -11.9960    0.1030    1.4840 hc        1 MOL      0.043126
    165 H76       -11.7540   -1.8520    0.1530 hc        1 MOL      0.081102
    166 H77       -12.1900   -1.0500   -1.3780 hc        1 MOL      0.081102
    167 N15        -9.9410    3.0540    0.5620 n         1 MOL     -0.252405
    168 C54        -9.1590    4.0330    1.3260 c3        1 MOL     -0.210147
    169 H78        -9.8250    4.6020    1.9760 h1        1 MOL      0.103249
    170 H79        -8.4170    3.5140    1.9330 h1        1 MOL      0.103249
    171 H80        -8.6560    4.7140    0.6390 h1        1 MOL      0.103249
    172 H81       -10.3770    3.3770   -0.2940 hn        1 MOL      0.252975
    173 Ca1         2.7380    0.0850   -0.8410 Ca        1 MOL      1.710463
    174 O23         3.0280    1.6000   -3.0550 oh        1 MOL     -0.784735
    175 H82         2.5630    1.8070   -3.8680 ho        1 MOL      0.398091
    176 H83         3.8240    1.1670   -3.3550 ho        1 MOL      0.398091
    177 O24         0.7180   -2.1370   -1.2420 oh        1 MOL     -0.784735
    178 H84        -0.1340   -2.5110   -1.4600 ho        1 MOL      0.398091
    179 H85         1.2530   -2.2900   -2.0220 ho        1 MOL      0.398091
    180 O25         0.2400    0.9930   -2.1660 oh        1 MOL     -0.784735
    181 H86        -0.1890    0.3770   -2.7560 ho        1 MOL      0.398091
    182 H87        -0.4380    1.6150   -1.9220 ho        1 MOL      0.398091
@<TRIPOS>BOND
     1    1    2 1   
     2    1    4 1   
     3    1    5 1   
     4    1    6 1   
     5    2    3 2   
     6    2    7 1   
     7    7    8 1   
     8    7   15 1   
     9    8    9 1   
    10    8   11 1   
    11    8   16 1   
    12    9   10 2   
    13    9   19 1   
    14   11   12 1   
    15   11   17 1   
    16   11   18 1   
    17   12   13 1   
    18   12   14 1   
    19   19   20 1   
    20   19   28 1   
    21   20   21 1   
    22   20   23 1   
    23   20   29 1   
    24   21   22 2   
    25   21   41 1   
    26   23   24 1   
    27   23   30 1   
    28   23   31 1   
    29   24   25 1   
    30   24   32 1   
    31   24   33 1   
    32   25   26 1   
    33   25   34 1   
    34   25   35 1   
    35   26   27 1   
    36   26   36 1   
    37   26   37 1   
    38   27   38 1   
    39   27   39 1   
    40   27   40 1   
    41   41   42 1   
    42   41   49 1   
    43   42   43 1   
    44   42   45 1   
    45   42   50 1   
    46   43   44 2   
    47   43   53 1   
    48   45   46 1   
    49   45   51 1   
    50   45   52 1   
    51   46   47 1   
    52   46   48 1   
    53   53   54 1   
    54   53   57 1   
    55   54   55 1   
    56   54   58 1   
    57   54   59 1   
    58   55   56 2   
    59   55   60 1   
    60   60   61 1   
    61   60   68 1   
    62   61   62 1   
    63   61   64 1   
    64   61   69 1   
    65   62   63 2   
    66   62   74 1   
    67   64   65 1   
    68   64   70 1   
    69   64   71 1   
    70   65   66 1   
    71   65   67 2   
    72   66   72 1   
    73   66   73 1   
    74   74   75 1   
    75   74   78 1   
    76   75   76 1   
    77   75   79 1   
    78   75   80 1   
    79   76   77 2   
    80   76   81 1   
    81   81   82 1   
    82   81   93 1   
    83   82   83 1   
    84   82   85 1   
    85   82   94 1   
    86   83   84 2   
    87   83  102 1   
    88   85   86 1   
    89   85   95 1   
    90   85   96 1   
    91   86   87 ar  
    92   86   88 ar  
    93   87   89 ar  
    94   87   97 1   
    95   88   90 ar  
    96   88   98 1   
    97   89   91 ar  
    98   89   99 1   
    99   90   91 ar  
   100   90  100 1   
   101   91   92 1   
   102   92  101 1   
   103  102  103 1   
   104  102  110 1   
   105  103  104 1   
   106  103  106 1   
   107  103  111 1   
   108  104  105 2   
   109  104  121 1   
   110  106  107 1   
   111  106  108 1   
   112  106  112 1   
   113  107  109 1   
   114  107  113 1   
   115  107  114 1   
   116  108  115 1   
   117  108  116 1   
   118  108  117 1   
   119  109  118 1   
   120  109  119 1   
   121  109  120 1   
   122  121  122 1   
   123  121  127 1   
   124  122  123 1   
   125  122  125 1   
   126  122  128 1   
   127  123  124 2   
   128  123  132 1   
   129  125  126 1   
   130  125  129 1   
   131  125  130 1   
   132  126  131 1   
   133  132  133 1   
   134  132  137 1   
   135  133  134 1   
   136  133  136 1   
   137  133  138 1   
   138  134  135 2   
   139  134  142 1   
   140  136  139 1   
   141  136  140 1   
   142  136  141 1   
   143  142  143 1   
   144  142  147 1   
   145  143  144 1   
   146  143  146 1   
   147  143  148 1   
   148  144  145 2   
   149  144  152 1   
   150  146  149 1   
   151  146  150 1   
   152  146  151 1   
   153  152  153 1   
   154  152  161 1   
   155  153  154 1   
   156  153  156 1   
   157  153  162 1   
   158  154  155 2   
   159  154  167 1   
   160  156  157 1   
   161  156  163 1   
   162  156  164 1   
   163  157  158 1   
   164  157  165 1   
   165  157  166 1   
   166  158  159 1   
   167  158  160 1   
   168  167  168 1   
   169  167  172 1   
   170  168  169 1   
   171  168  170 1   
   172  168  171 1   
   173  174  175 1   
   174  174  176 1   
   175  177  178 1   
   176  177  179 1   
   177  180  181 1   
   178  180  182 1   
@<TRIPOS>SUBSTRUCTURE
     1 MOL         1 TEMP              0 ****  ****    0 ROOT
