@<TRIPOS>MOLECULE
MOL
  181   177     1     0     0
SMALL
resp


@<TRIPOS>ATOM
      1 C1         11.1170    5.8620    0.3090 c3        1 MOL     -0.215611
      2 C2         10.2650    4.9350    1.2430 c         1 MOL      0.757890
      3 O1          9.5180    5.4730    2.0270 o         1 MOL     -0.600201
      4 H1         10.4700    6.3100   -0.4460 hc        1 MOL      0.041815
      5 H2         11.5810    6.6500    0.9030 hc        1 MOL      0.041815
      6 H3         11.8920    5.2720   -0.1810 hc        1 MOL      0.041815
      7 N1         10.2240    3.6230    1.0710 n         1 MOL     -0.707298
      8 C3         11.0150    2.7970    0.0680 c3        1 MOL      0.196963
      9 C4         11.2380    1.3780    0.7170 c         1 MOL      0.489165
     10 O2         10.8780    1.1020    1.8640 o         1 MOL     -0.465847
     11 C5         10.3020    2.7790   -1.3190 c3        1 MOL     -0.260508
     12 C6          9.0020    2.0110   -1.1980 c         1 MOL      0.618274
     13 O3          8.9890    0.7770   -1.4690 o         1 MOL     -0.668904
     14 O4          7.9230    2.5770   -0.7920 o         1 MOL     -0.668904
     15 H4          9.5120    3.1570    1.6090 hn        1 MOL      0.410608
     16 H5         12.0390    3.1730   -0.0320 h1        1 MOL      0.031198
     17 H6         10.9400    2.3310   -2.0850 hc        1 MOL      0.053339
     18 H7          9.9630    3.7850   -1.5690 hc        1 MOL      0.053339
     19 N2         11.8810    0.5030    0.0200 n         1 MOL     -0.497395
     20 C7         12.2330   -0.8540    0.2950 c3        1 MOL      0.214984
     21 C8         11.0740   -1.8420    0.8080 c         1 MOL      0.327833
     22 O5         11.3010   -2.6820    1.7270 o         1 MOL     -0.482545
     23 C9         13.5460   -0.9910    1.0840 c3        1 MOL     -0.384069
     24 H8         11.9840    0.8380   -0.9240 hn        1 MOL      0.290407
     25 H9         12.3470   -1.1590   -0.7430 h1        1 MOL      0.014969
     26 H10        13.5160   -0.5450    2.0810 hc        1 MOL      0.108141
     27 H11        13.7010   -2.0580    1.2380 hc        1 MOL      0.108141
     28 H12        14.4590   -0.5870    0.6380 hc        1 MOL      0.108141
     29 N3          9.8410   -1.7850    0.2430 n         1 MOL      0.021581
     30 C10         8.7770   -2.7430    0.4360 c3        1 MOL     -0.353762
     31 C11         7.8320   -2.7660   -0.8390 c         1 MOL      0.613411
     32 O6          7.8370   -1.8740   -1.6810 o         1 MOL     -0.624235
     33 C12         7.9300   -2.3570    1.6210 c3        1 MOL     -0.046018
     34 C13         7.3060   -0.9420    1.6630 c         1 MOL      0.688421
     35 O7          7.3020   -0.3260    2.7340 o         1 MOL     -0.682698
     36 O8          6.6820   -0.5040    0.6930 o         1 MOL     -0.682698
     37 H13         9.7190   -1.1490   -0.5300 hn        1 MOL      0.115897
     38 H14         9.2060   -3.7370    0.5810 h1        1 MOL      0.098841
     39 H15         8.6380   -2.2660    2.4340 hc        1 MOL      0.043915
     40 H16         7.1750   -3.1130    1.8510 hc        1 MOL      0.043915
     41 N4          6.8890   -3.7140   -0.9000 n         1 MOL     -0.394198
     42 C14         5.9330   -3.8330   -2.0510 c3        1 MOL     -0.237685
     43 C15         4.7210   -2.8960   -1.9020 c         1 MOL      0.758938
     44 O9          4.7780   -1.7660   -1.4450 o         1 MOL     -0.623556
     45 H17         6.8740   -4.3980   -0.1590 hn        1 MOL      0.326004
     46 H18         5.5860   -4.8630   -2.1010 h1        1 MOL      0.104511
     47 H19         6.4570   -3.5660   -2.9620 h1        1 MOL      0.104511
     48 N5          3.6680   -3.3660   -2.5600 n         1 MOL     -0.632126
     49 C16         2.3820   -2.6730   -2.5750 c3        1 MOL      0.286219
     50 C17         1.8050   -2.5710   -1.1490 c         1 MOL      0.514256
     51 O10         2.1410   -3.3080   -0.2390 o         1 MOL     -0.536923
     52 C18         1.4030   -3.3540   -3.5420 c3        1 MOL     -0.717824
     53 C19         0.1330   -2.5610   -3.7330 c         1 MOL      0.772978
     54 N6          0.0850   -1.5500   -4.5330 n         1 MOL     -0.795279
     55 O11        -0.7580   -2.7830   -2.9570 o         1 MOL     -0.513633
     56 H20         3.7120   -4.3020   -2.9340 hn        1 MOL      0.332519
     57 H21         2.7150   -1.6500   -2.7670 h1        1 MOL      0.006032
     58 H22         1.2360   -4.3080   -3.0350 hc        1 MOL      0.200606
     59 H23         1.8570   -3.5330   -4.5150 hc        1 MOL      0.200606
     60 H24         0.9480   -1.2220   -4.9570 hn        1 MOL      0.365435
     61 H25        -0.7790   -1.0580   -4.6820 hn        1 MOL      0.365435
     62 N7          1.0310   -1.5580   -0.8140 n         1 MOL     -0.444327
     63 C20         0.6310   -1.1640    0.5790 c3        1 MOL      0.397968
     64 C21         1.1600    0.1920    1.1800 c         1 MOL      0.176193
     65 O12         1.6100    1.1220    0.5300 o         1 MOL     -0.484783
     66 H26         0.8010   -0.8400   -1.4890 hn        1 MOL      0.276682
     67 H27         1.0080   -1.9200    1.2760 h1        1 MOL      0.044715
     68 H28        -0.4510   -1.2610    0.6150 h1        1 MOL      0.044715
     69 N8          1.0270    0.4530    2.4830 n         1 MOL     -0.159863
     70 C22         0.6330   -0.4870    3.5300 c3        1 MOL     -0.272751
     71 C23        -0.7350   -1.1230    3.3190 c         1 MOL      0.249073
     72 O13        -0.8610   -2.3200    3.7440 o         1 MOL     -0.453014
     73 C24         0.6690    0.0850    4.9160 c3        1 MOL      0.425987
     74 C25         2.0770    0.6580    5.2470 c3        1 MOL     -0.351252
     75 O14        -0.3610    1.0510    4.9540 oh        1 MOL     -0.614843
     76 H29         1.1300    1.4110    2.7520 hn        1 MOL      0.255066
     77 H30         1.3920   -1.2750    3.5560 h1        1 MOL      0.136062
     78 H31         0.4060   -0.6710    5.6520 h1        1 MOL      0.024776
     79 H32        -0.7970    1.0830    5.8080 ho        1 MOL      0.376557
     80 H33         2.4320    0.3190    6.2230 hc        1 MOL      0.088703
     81 H34         2.7600    0.3230    4.4630 hc        1 MOL      0.088703
     82 H35         2.0320    1.7430    5.3000 hc        1 MOL      0.088703
     83 N9         -1.7290   -0.3020    2.8170 n         1 MOL     -0.028566
     84 C26        -3.0940   -0.6620    2.4480 c3        1 MOL      0.041284
     85 C27        -3.2920   -0.9920    0.9920 c         1 MOL      0.537267
     86 O15        -2.5150   -0.6120    0.1090 o         1 MOL     -0.566817
     87 C28        -4.0280    0.5090    2.9390 c3        1 MOL      0.068794
     88 C29        -3.6360    1.6950    1.9970 c3        1 MOL     -0.332859
     89 C30        -3.8280    0.8410    4.4460 c3        1 MOL     -0.223141
     90 C31        -4.3080    2.9870    2.4030 c3        1 MOL      0.002165
     91 H36        -1.4990    0.6520    2.5850 hn        1 MOL      0.123864
     92 H37        -3.4210   -1.5410    3.0110 h1        1 MOL      0.080100
     93 H38        -5.0690    0.2840    2.7100 hc        1 MOL      0.061128
     94 H39        -3.7310    1.4520    0.9400 hc        1 MOL      0.106465
     95 H40        -2.5710    1.9210    2.0380 hc        1 MOL      0.106465
     96 H41        -3.7860   -0.0800    5.0320 hc        1 MOL      0.052612
     97 H42        -3.0280    1.5210    4.7300 hc        1 MOL      0.052612
     98 H43        -4.7460    1.3290    4.7650 hc        1 MOL      0.052612
     99 H44        -4.1940    3.8190    1.7000 hc        1 MOL      0.006158
    100 H45        -5.3980    2.9680    2.3770 hc        1 MOL      0.006158
    101 H46        -3.9400    3.3820    3.3470 hc        1 MOL      0.006158
    102 N10        -4.3500   -1.7740    0.5700 n         1 MOL     -0.368231
    103 C32        -5.5930   -2.1650    1.2980 c3        1 MOL      0.152665
    104 C33        -6.8520   -1.6860    0.5440 c         1 MOL      0.514650
    105 O16        -6.7730   -1.6160   -0.6860 o         1 MOL     -0.493633
    106 C34        -5.6590   -3.6590    1.4290 c3        1 MOL     -0.377424
    107 C35        -4.4830   -4.2820    2.2340 c         1 MOL      0.669232
    108 O17        -3.7910   -5.2340    1.7460 o         1 MOL     -0.685215
    109 O18        -4.2090   -3.7690    3.3480 o         1 MOL     -0.685215
    110 H47        -4.4070   -1.6400   -0.4270 hn        1 MOL      0.274978
    111 H48        -5.5690   -1.6480    2.2620 h1        1 MOL     -0.028325
    112 H49        -5.6160   -4.0770    0.4220 hc        1 MOL      0.089891
    113 H50        -6.6320   -3.8680    1.8630 hc        1 MOL      0.089891
    114 N11        -7.9490   -1.3260    1.2180 n         1 MOL     -0.686089
    115 C36        -9.1930   -0.9740    0.6940 c3        1 MOL      0.583340
    116 C37        -9.7510    0.3630    1.3290 c         1 MOL      0.159411
    117 O19        -9.9850    0.4300    2.5490 o         1 MOL     -0.502505
    118 C38       -10.1900   -2.1250    0.8570 c3        1 MOL     -0.170643
    119 C39       -11.3210   -2.1030   -0.1780 ca        1 MOL      0.150227
    120 C40       -12.5300   -1.5430    0.2290 ca        1 MOL     -0.256209
    121 C41       -11.1800   -2.4910   -1.4950 ca        1 MOL     -0.256209
    122 C42       -13.6180   -1.4980   -0.6890 ca        1 MOL     -0.013740
    123 C43       -12.2780   -2.4330   -2.3890 ca        1 MOL     -0.013740
    124 C44       -13.5420   -2.0310   -1.9370 ca        1 MOL     -0.209674
    125 H51        -7.8680   -1.3980    2.2170 hn        1 MOL      0.338502
    126 H52        -9.0440   -0.7890   -0.3640 h1        1 MOL     -0.056557
    127 H53       -10.5690   -2.1250    1.8810 hc        1 MOL      0.042821
    128 H54        -9.6290   -3.0480    0.7610 hc        1 MOL      0.042821
    129 H55       -12.6020   -1.2110    1.2530 ha        1 MOL      0.152063
    130 H56       -10.2150   -2.8280   -1.8580 ha        1 MOL      0.152063
    131 H57       -14.5160   -1.0390   -0.2940 ha        1 MOL      0.083206
    132 H58       -12.1090   -2.7500   -3.3980 ha        1 MOL      0.083206
    133 H59       -14.3920   -1.8660   -2.5880 ha        1 MOL      0.111100
    134 N12       -10.1140    1.3720    0.5020 n         1 MOL      0.076363
    135 C45       -10.2370    1.3730   -0.9650 c3        1 MOL     -0.146920
    136 C46        -8.9950    1.9100   -1.5670 c         1 MOL      0.520949
    137 O20        -8.8220    1.7460   -2.7860 o         1 MOL     -0.540633
    138 C47       -11.4840    2.2540   -1.2030 c3        1 MOL      0.003156
    139 C48       -11.4720    3.3400   -0.1410 c3        1 MOL      0.088641
    140 C49       -10.8950    2.4970    1.0130 c3        1 MOL     -0.100776
    141 H60       -10.4540    0.3540   -1.2920 h1        1 MOL      0.143987
    142 H61       -11.5000    2.6990   -2.1970 hc        1 MOL     -0.006038
    143 H62       -12.2690    1.5290   -0.9840 hc        1 MOL     -0.006038
    144 H63       -10.8570    4.2240   -0.2940 hc        1 MOL      0.000603
    145 H64       -12.4820    3.7340    0.0020 hc        1 MOL      0.000603
    146 H65       -10.4340    3.2240    1.6870 h1        1 MOL      0.041651
    147 H66       -11.7200    2.0830    1.5950 h1        1 MOL      0.041651
    148 N13        -8.0860    2.5580   -0.8260 n         1 MOL     -0.434725
    149 C50        -6.9560    3.1860   -1.2670 c3        1 MOL      0.213680
    150 C51        -6.7860    4.5190   -0.4530 c         1 MOL      0.445462
    151 O21        -7.3400    4.7100    0.6000 o         1 MOL     -0.567949
    152 C52        -5.6770    2.2900   -1.1280 c3        1 MOL      0.092101
    153 C53        -5.5040    1.0660   -2.0120 c3        1 MOL     -0.066352
    154 C54        -4.7460    1.2650   -3.3270 c         1 MOL      0.605579
    155 O22        -3.5170    0.8670   -3.4880 o         1 MOL     -0.693367
    156 O23        -5.2720    2.0390   -4.1390 o         1 MOL     -0.693367
    157 H67        -8.2240    2.6050    0.1710 hn        1 MOL      0.231941
    158 H68        -6.9650    3.4090   -2.3350 h1        1 MOL      0.044923
    159 H69        -5.6160    1.9330   -0.1030 hc        1 MOL     -0.015317
    160 H70        -4.7910    2.9160   -1.2410 hc        1 MOL     -0.015317
    161 H71        -6.3970    0.4520   -2.1820 hc        1 MOL      0.001427
    162 H72        -4.8130    0.4280   -1.4700 hc        1 MOL      0.001427
    163 N14        -6.1490    5.5550   -0.9620 n         1 MOL     -0.404715
    164 C55        -5.5180    5.6220   -2.3190 c3        1 MOL     -0.039124
    165 H73        -6.0920    6.2960   -2.9540 h1        1 MOL      0.052387
    166 H74        -4.4970    5.9920   -2.2280 h1        1 MOL      0.052387
    167 H75        -5.5060    4.6270   -2.7640 h1        1 MOL      0.052387
    168 H76        -6.0600    6.3660   -0.3780 hn        1 MOL      0.284628
    169 Ca1         6.3940    0.3860   -1.7190 Ca        1 MOL      1.752156
    170 O24         4.1190    0.9780   -2.9180 oh        1 MOL     -0.816108
    171 H77         3.2880    1.4190   -2.7510 ho        1 MOL      0.404231
    172 H78         4.2560    1.0550   -3.8620 ho        1 MOL      0.404231
    173 O25         7.1790    2.1760   -3.8530 oh        1 MOL     -0.816108
    174 H79         8.0110    2.3000   -4.2910 ho        1 MOL      0.404231
    175 H80         6.6640    2.9470   -4.0760 ho        1 MOL      0.404231
    176 O26         6.1110   -1.1410   -4.0620 oh        1 MOL     -0.816108
    177 H81         5.7210   -1.0790   -4.9370 ho        1 MOL      0.404231
    178 H82         6.8250   -1.7720   -4.1670 ho        1 MOL      0.404231
    179 O27         4.8720    2.4460   -0.3460 oh        1 MOL     -0.816108
    180 H83         5.0340    2.2350    0.5740 ho        1 MOL      0.404231
    181 H84         4.1040    3.0100   -0.3310 ho        1 MOL      0.404231
@<TRIPOS>BOND
     1    1    2 1   
     2    1    4 1   
     3    1    5 1   
     4    1    6 1   
     5    2    3 2   
     6    2    7 1   
     7    7    8 1   
     8    7   15 1   
     9    8    9 1   
    10    8   11 1   
    11    8   16 1   
    12    9   10 2   
    13    9   19 1   
    14   11   12 1   
    15   11   17 1   
    16   11   18 1   
    17   12   13 1   
    18   12   14 1   
    19   19   20 1   
    20   19   24 1   
    21   20   21 1   
    22   20   23 1   
    23   20   25 1   
    24   21   22 2   
    25   21   29 1   
    26   23   26 1   
    27   23   27 1   
    28   23   28 1   
    29   29   30 1   
    30   29   37 1   
    31   30   31 1   
    32   30   33 1   
    33   30   38 1   
    34   31   32 2   
    35   31   41 1   
    36   33   34 1   
    37   33   39 1   
    38   33   40 1   
    39   34   35 1   
    40   34   36 1   
    41   41   42 1   
    42   41   45 1   
    43   42   43 1   
    44   42   46 1   
    45   42   47 1   
    46   43   44 2   
    47   43   48 1   
    48   48   49 1   
    49   48   56 1   
    50   49   50 1   
    51   49   52 1   
    52   49   57 1   
    53   50   51 2   
    54   50   62 1   
    55   52   53 1   
    56   52   58 1   
    57   52   59 1   
    58   53   54 1   
    59   53   55 2   
    60   54   60 1   
    61   54   61 1   
    62   62   63 1   
    63   62   66 1   
    64   63   64 1   
    65   63   67 1   
    66   63   68 1   
    67   64   65 2   
    68   64   69 1   
    69   69   70 1   
    70   69   76 1   
    71   70   71 1   
    72   70   73 1   
    73   70   77 1   
    74   71   72 2   
    75   71   83 1   
    76   73   74 1   
    77   73   75 1   
    78   73   78 1   
    79   74   80 1   
    80   74   81 1   
    81   74   82 1   
    82   75   79 1   
    83   83   84 1   
    84   83   91 1   
    85   84   85 1   
    86   84   87 1   
    87   84   92 1   
    88   85   86 2   
    89   85  102 1   
    90   87   88 1   
    91   87   89 1   
    92   87   93 1   
    93   88   90 1   
    94   88   94 1   
    95   88   95 1   
    96   89   96 1   
    97   89   97 1   
    98   89   98 1   
    99   90   99 1   
   100   90  100 1   
   101   90  101 1   
   102  102  103 1   
   103  102  110 1   
   104  103  104 1   
   105  103  106 1   
   106  103  111 1   
   107  104  105 2   
   108  104  114 1   
   109  106  107 1   
   110  106  112 1   
   111  106  113 1   
   112  107  108 1   
   113  107  109 1   
   114  114  115 1   
   115  114  125 1   
   116  115  116 1   
   117  115  118 1   
   118  115  126 1   
   119  116  117 2   
   120  116  134 1   
   121  118  119 1   
   122  118  127 1   
   123  118  128 1   
   124  119  120 ar  
   125  119  121 ar  
   126  120  122 ar  
   127  120  129 1   
   128  121  123 ar  
   129  121  130 1   
   130  122  124 ar  
   131  122  131 1   
   132  123  124 ar  
   133  123  132 1   
   134  124  133 1   
   135  134  135 1   
   136  134  140 1   
   137  135  136 1   
   138  135  138 1   
   139  135  141 1   
   140  136  137 2   
   141  136  148 1   
   142  138  139 1   
   143  138  142 1   
   144  138  143 1   
   145  139  140 1   
   146  139  144 1   
   147  139  145 1   
   148  140  146 1   
   149  140  147 1   
   150  148  149 1   
   151  148  157 1   
   152  149  150 1   
   153  149  152 1   
   154  149  158 1   
   155  150  151 2   
   156  150  163 1   
   157  152  153 1   
   158  152  159 1   
   159  152  160 1   
   160  153  154 1   
   161  153  161 1   
   162  153  162 1   
   163  154  155 1   
   164  154  156 1   
   165  163  164 1   
   166  163  168 1   
   167  164  165 1   
   168  164  166 1   
   169  164  167 1   
   170  170  171 1   
   171  170  172 1   
   172  173  174 1   
   173  173  175 1   
   174  176  177 1   
   175  176  178 1   
   176  179  180 1   
   177  179  181 1   
@<TRIPOS>SUBSTRUCTURE
     1 MOL         1 TEMP              0 ****  ****    0 ROOT
