@<TRIPOS>MOLECULE
MOL
  189   185     1     0     0
SMALL
resp


@<TRIPOS>ATOM
      1 C1         -4.4220    3.4750    3.7410 c3        1 MOL     -0.421055
      2 C2         -5.2450    2.6470    2.7210 c         1 MOL      0.824751
      3 O1         -4.6280    2.1420    1.7630 o         1 MOL     -0.711316
      4 H1         -3.3930    3.1140    3.7550 hc        1 MOL      0.113952
      5 H2         -4.4350    4.5260    3.4510 hc        1 MOL      0.113952
      6 H3         -4.8570    3.3670    4.7340 hc        1 MOL      0.113952
      7 N1         -6.6060    2.4610    2.8340 n         1 MOL     -0.798445
      8 C3         -7.4410    1.5520    2.0490 c3        1 MOL      0.397713
      9 C4         -6.6670    0.3280    1.5760 c         1 MOL      0.132622
     10 O2         -6.2240    0.3020    0.3800 o         1 MOL     -0.222035
     11 C5         -8.2970    2.3410    1.0440 c3        1 MOL     -0.195092
     12 C6         -7.5930    3.4690    0.2350 c         1 MOL      0.786262
     13 O3         -6.7110    3.0970   -0.4950 o         1 MOL     -0.739891
     14 O4         -8.0520    4.6350    0.3750 o         1 MOL     -0.739891
     15 H4         -7.0610    2.9670    3.5830 hn        1 MOL      0.356855
     16 H5         -8.2010    1.1280    2.6980 h1        1 MOL     -0.000210
     17 H6         -9.1350    2.7340    1.6140 hc        1 MOL      0.020586
     18 H7         -8.8090    1.6590    0.3650 hc        1 MOL      0.020586
     19 N2         -6.4440   -0.6240    2.5410 n         1 MOL     -0.416718
     20 C7         -5.7560   -1.9080    2.4830 c3        1 MOL      0.060958
     21 C8         -6.4910   -2.8820    1.5230 c         1 MOL      0.423042
     22 O5         -6.6250   -4.0440    1.8590 o         1 MOL     -0.550939
     23 C9         -4.2020   -1.8030    2.2340 c3        1 MOL      0.093978
     24 C10        -3.3610   -3.1180    2.0580 c3        1 MOL      0.032297
     25 C11        -3.5360   -0.9010    3.2330 c3        1 MOL     -0.233751
     26 C12        -3.2990   -4.0360    3.2750 c3        1 MOL     -0.246734
     27 H8         -6.8080   -0.3140    3.4370 hn        1 MOL      0.286968
     28 H9         -5.8730   -2.4710    3.4120 h1        1 MOL      0.033564
     29 H10        -4.1380   -1.2310    1.3110 hc        1 MOL      0.147085
     30 H11        -2.3600   -2.7970    1.7900 hc        1 MOL      0.042443
     31 H12        -3.7210   -3.7090    1.2140 hc        1 MOL      0.042443
     32 H13        -4.1590   -0.0390    3.4740 hc        1 MOL      0.041981
     33 H14        -3.2400   -1.4280    4.1400 hc        1 MOL      0.041981
     34 H15        -2.6240   -0.4390    2.8540 hc        1 MOL      0.041981
     35 H16        -2.7670   -4.9710    3.0680 hc        1 MOL      0.047471
     36 H17        -2.7110   -3.5370    4.0520 hc        1 MOL      0.047471
     37 H18        -4.2450   -4.3410    3.6960 hc        1 MOL      0.047471
     38 N3         -6.8750   -2.3810    0.3480 n         1 MOL     -0.072998
     39 C13        -7.6360   -3.1590   -0.6560 c3        1 MOL     -0.197058
     40 C14        -6.9730   -4.4990   -1.2530 c         1 MOL      0.673049
     41 O6         -7.6350   -5.4930   -1.3660 o         1 MOL     -0.596278
     42 C15        -8.0710   -2.2190   -1.8170 c3        1 MOL     -0.090610
     43 C16        -8.9990   -1.1770   -1.4650 c         1 MOL      0.740153
     44 O7        -10.0780   -1.4150   -0.8030 o         1 MOL     -0.719281
     45 O8         -8.7360   -0.0400   -1.9360 o         1 MOL     -0.719281
     46 H19        -6.4820   -1.4740    0.0950 hn        1 MOL      0.082431
     47 H20        -8.5340   -3.5310   -0.1650 h1        1 MOL      0.097313
     48 H21        -8.4940   -2.8640   -2.5900 hc        1 MOL      0.014734
     49 H22        -7.2370   -1.7340   -2.3240 hc        1 MOL      0.014734
     50 N4         -5.7290   -4.6050   -1.6920 n         1 MOL     -0.556530
     51 C17        -4.7520   -3.4730   -1.8880 c3        1 MOL      0.000233
     52 C18        -3.3870   -3.8690   -2.3920 c         1 MOL      0.632827
     53 O9         -3.0510   -5.0340   -2.5340 o         1 MOL     -0.594460
     54 H23        -5.4590   -5.5080   -2.0450 hn        1 MOL      0.298575
     55 H24        -4.5380   -3.0670   -0.8980 h1        1 MOL      0.108673
     56 H25        -5.1110   -2.7600   -2.6330 h1        1 MOL      0.108673
     57 N5         -2.4610   -2.9790   -2.6950 n         1 MOL     -0.502374
     58 C19        -2.3170   -1.4950   -2.6540 c3        1 MOL      0.162096
     59 C20        -2.4440   -0.9030   -1.2720 c         1 MOL      0.124491
     60 O10        -3.5580   -0.5770   -0.8440 o         1 MOL     -0.694550
     61 C21        -3.1290   -0.8440   -3.8310 c3        1 MOL     -0.325485
     62 C22        -3.1440    0.7040   -3.9140 c         1 MOL      0.767650
     63 O11        -3.1650    1.2490   -5.0400 o         1 MOL     -0.684764
     64 O12        -3.0710    1.3920   -2.8510 o         1 MOL     -0.684764
     65 H26        -1.5780   -3.4440   -2.8640 hn        1 MOL      0.262944
     66 H27        -1.3170   -1.2510   -3.0120 h1        1 MOL      0.128995
     67 H28        -4.1210   -1.2650   -3.9540 hc        1 MOL      0.064429
     68 H29        -2.6120   -1.1580   -4.7490 hc        1 MOL      0.064429
     69 N6         -1.3190   -0.6460   -0.4800 n         1 MOL     -0.017515
     70 C23         0.0840   -1.1000   -0.6880 c3        1 MOL     -0.023234
     71 C24         0.3770   -2.5300   -0.3300 c         1 MOL      0.563901
     72 O13        -0.3070   -3.1530    0.4650 o         1 MOL     -0.527139
     73 H30        -1.5230   -0.2150    0.4040 hn        1 MOL      0.174813
     74 H31         0.7740   -0.5440   -0.0540 h1        1 MOL      0.004201
     75 H32         0.3880   -1.0310   -1.7330 h1        1 MOL      0.004201
     76 N7          1.5190   -2.9600   -0.8120 n         1 MOL     -0.343695
     77 C25         2.1280   -4.1730   -0.2720 c3        1 MOL     -0.290624
     78 C26         2.6970   -4.1730    1.2160 c         1 MOL      0.502473
     79 O14         2.9090   -5.2340    1.7810 o         1 MOL     -0.500111
     80 C27         3.2320   -4.6350   -1.1970 c3        1 MOL      0.036883
     81 C28         4.3770   -3.6520   -1.3410 c3        1 MOL     -0.161073
     82 C29         5.5010   -4.2430   -2.3000 c         1 MOL      0.588905
     83 N8          6.6840   -4.7440   -1.9390 n         1 MOL     -0.685229
     84 O15         5.1950   -4.5170   -3.4700 o         1 MOL     -0.564785
     85 H33         1.9150   -2.4000   -1.5580 hn        1 MOL      0.307169
     86 H34         1.3930   -4.9740   -0.3790 h1        1 MOL      0.175570
     87 H35         2.9170   -4.9520   -2.1930 hc        1 MOL      0.048116
     88 H36         3.7450   -5.4900   -0.7610 hc        1 MOL      0.048116
     89 H37         4.8270   -3.5110   -0.3590 hc        1 MOL      0.037574
     90 H38         3.8590   -2.7560   -1.6880 hc        1 MOL      0.037574
     91 H39         7.0390   -4.7050   -0.9960 hn        1 MOL      0.331786
     92 H40         7.2950   -5.0710   -2.6610 hn        1 MOL      0.331786
     93 N9          2.8770   -2.9630    1.8020 n         1 MOL     -0.129061
     94 C30         3.5350   -2.7950    3.1120 c3        1 MOL     -0.297260
     95 C31         4.9940   -2.3390    3.1530 c         1 MOL      0.658896
     96 O16         5.6750   -2.5070    4.1200 o         1 MOL     -0.560038
     97 C32         2.6860   -2.0100    4.0930 c3        1 MOL      0.246640
     98 C33         1.4080   -2.7130    4.4390 c3        1 MOL     -0.198157
     99 C34         2.4800   -0.5600    3.6900 c3        1 MOL     -0.198157
    100 H41         2.6970   -2.1770    1.1950 hn        1 MOL      0.207111
    101 H42         3.5830   -3.8220    3.4810 h1        1 MOL      0.127220
    102 H43         3.2500   -2.0270    5.0250 hc        1 MOL     -0.004928
    103 H44         0.6810   -2.5260    3.6450 hc        1 MOL      0.044966
    104 H45         1.5590   -3.7790    4.5480 hc        1 MOL      0.044966
    105 H46         0.9980   -2.2690    5.3510 hc        1 MOL      0.044966
    106 H47         2.0960   -0.1580    4.6230 hc        1 MOL      0.044966
    107 H48         3.3450    0.0280    3.3810 hc        1 MOL      0.044966
    108 H49         1.7460   -0.6250    2.8820 hc        1 MOL      0.044966
    109 N10         5.4720   -1.6370    2.1110 n         1 MOL     -0.330229
    110 C35         6.8810   -1.1630    1.9840 c3        1 MOL     -0.056307
    111 C36         7.0860    0.3040    1.4500 c         1 MOL      0.649617
    112 O17         7.9460    1.0120    1.9820 o         1 MOL     -0.574818
    113 C37         7.7580   -2.0510    1.0880 c3        1 MOL     -0.467605
    114 C38         7.7530   -3.4360    1.6300 c         1 MOL      0.690330
    115 N11         8.3600   -3.6810    2.7650 n         1 MOL     -0.732497
    116 O18         7.3430   -4.3770    0.9060 o         1 MOL     -0.565118
    117 H50         4.8230   -1.3910    1.3840 hn        1 MOL      0.160113
    118 H51         7.3000   -1.1950    2.9910 h1        1 MOL      0.094815
    119 H52         8.7640   -1.6280    1.0710 hc        1 MOL      0.159008
    120 H53         7.4110   -2.0500    0.0580 hc        1 MOL      0.159008
    121 H54         8.7730   -2.8580    3.1880 hn        1 MOL      0.366773
    122 H55         8.5220   -4.5980    3.1660 hn        1 MOL      0.366773
    123 N12         6.2680    0.7530    0.4970 n         1 MOL     -0.593934
    124 C39         6.3490    2.0910   -0.1820 c3        1 MOL      0.342632
    125 C40         4.9530    2.8220   -0.1420 c         1 MOL      0.390254
    126 O19         3.9380    2.1710   -0.0600 o         1 MOL     -0.502246
    127 C41         6.7810    1.8580   -1.6520 c3        1 MOL     -0.166255
    128 C42         8.0430    1.1780   -1.9250 ca        1 MOL      0.083782
    129 C43         9.1940    1.9390   -2.1100 ca        1 MOL     -0.159806
    130 C44         8.0760   -0.2700   -2.0270 ca        1 MOL     -0.159806
    131 C45        10.4350    1.2470   -2.2890 ca        1 MOL     -0.234000
    132 C46         9.3360   -0.9020   -2.4050 ca        1 MOL     -0.234000
    133 C47        10.5270   -0.1050   -2.4960 ca        1 MOL      0.296515
    134 O20        11.7700   -0.6780   -2.5360 oh        1 MOL     -0.482880
    135 H56         5.6330    0.1000    0.0690 hn        1 MOL      0.334916
    136 H57         7.0320    2.8470    0.2280 h1        1 MOL     -0.008827
    137 H58         6.7690    2.8800   -2.0390 hc        1 MOL      0.090331
    138 H59         5.9380    1.3650   -2.1430 hc        1 MOL      0.090331
    139 H60         9.1380    3.0130   -2.0370 ha        1 MOL      0.113683
    140 H61         7.1760   -0.8330   -1.8530 ha        1 MOL      0.113683
    141 H62        11.3420    1.8350   -2.3610 ha        1 MOL      0.123661
    142 H63         9.4210   -1.9790   -2.5020 ha        1 MOL      0.123661
    143 H64        12.4330   -0.0070   -2.7150 ho        1 MOL      0.342656
    144 N13         4.9460    4.0990   -0.4230 n         1 MOL     -0.570366
    145 C48         3.7550    4.9260   -0.8820 c3        1 MOL      0.188018
    146 C49         2.5970    5.1370    0.1120 c         1 MOL      0.271893
    147 O21         1.9940    6.2070    0.1440 o         1 MOL     -0.467513
    148 C50         3.1180    4.4440   -2.2120 c3        1 MOL      0.201301
    149 C51         3.9950    4.2200   -3.3410 c3        1 MOL     -0.291966
    150 C52         3.2480    3.5590   -4.5200 c         1 MOL      0.703501
    151 O22         3.4030    2.3460   -4.7040 o         1 MOL     -0.696276
    152 O23         2.4710    4.2020   -5.2280 o         1 MOL     -0.696276
    153 H65         5.8020    4.6330   -0.3200 hn        1 MOL      0.325035
    154 H66         4.0810    5.9490   -1.0760 h1        1 MOL      0.020618
    155 H67         2.3820    5.2120   -2.4340 hc        1 MOL      0.031168
    156 H68         2.5730    3.5290   -1.9760 hc        1 MOL      0.031168
    157 H69         4.8140    3.5870   -3.0190 hc        1 MOL     -0.005489
    158 H70         4.4760    5.1480   -3.6400 hc        1 MOL     -0.005489
    159 N14         2.3150    4.1630    1.0430 n         1 MOL     -0.381693
    160 C53         1.1670    4.2250    1.9940 c3        1 MOL     -0.001880
    161 C54         1.5470    4.7290    3.3580 c         1 MOL      0.565087
    162 O24         0.7470    5.3050    4.0700 o         1 MOL     -0.548375
    163 C55         0.5580    2.8270    2.1900 c3        1 MOL     -0.159139
    164 C56         0.2290    2.1360    0.8220 c3        1 MOL      0.336874
    165 C57        -0.8300    2.8630   -0.0250 c         1 MOL      0.468203
    166 O25        -0.5770    3.9380   -0.6760 o         1 MOL     -0.602790
    167 O26        -1.9810    2.2980   -0.0760 o         1 MOL     -0.602790
    168 H71         2.7710    3.2850    0.8730 hn        1 MOL      0.313067
    169 H72         0.4080    4.9420    1.6500 h1        1 MOL      0.133048
    170 H73        -0.4040    2.8930    2.6940 hc        1 MOL      0.022613
    171 H74         1.2620    2.1680    2.6980 hc        1 MOL      0.022613
    172 H75        -0.1190    1.1270    1.0850 hc        1 MOL     -0.098648
    173 H76         1.1260    2.1670    0.2110 hc        1 MOL     -0.098648
    174 N15         2.8650    4.5940    3.7630 n         1 MOL     -0.310973
    175 C58         3.3210    5.2800    5.0410 c3        1 MOL     -0.377673
    176 H77         4.4090    5.2560    5.0980 h1        1 MOL      0.136289
    177 H78         2.9800    6.3150    5.0390 h1        1 MOL      0.136289
    178 H79         2.9010    4.7610    5.9030 h1        1 MOL      0.136289
    179 H80         3.6190    4.2200    3.2110 hn        1 MOL      0.236144
    180 Ca1        -4.4850    1.8920   -0.9280 Ca        1 MOL      1.813725
    181 O27        -3.4980    4.7560   -0.7680 oh        1 MOL     -0.857016
    182 H81        -3.5720    5.6830   -0.9750 ho        1 MOL      0.403978
    183 H82        -2.5910    4.6420   -0.4810 ho        1 MOL      0.403978
    184 O28        -5.2900    3.7910   -2.9350 oh        1 MOL     -0.857016
    185 H83        -5.6740    3.4710   -3.7490 ho        1 MOL      0.403978
    186 H84        -5.8400    4.5290   -2.6780 ho        1 MOL      0.403978
    187 O29        -6.2130    0.7430   -2.7170 oh        1 MOL     -0.857016
    188 H85        -7.0740    0.3500   -2.5790 ho        1 MOL      0.403978
    189 H86        -6.0100    0.5620   -3.6270 ho        1 MOL      0.403978
@<TRIPOS>BOND
     1    1    2 1   
     2    1    4 1   
     3    1    5 1   
     4    1    6 1   
     5    2    3 2   
     6    2    7 1   
     7    7    8 1   
     8    7   15 1   
     9    8    9 1   
    10    8   11 1   
    11    8   16 1   
    12    9   10 2   
    13    9   19 1   
    14   11   12 1   
    15   11   17 1   
    16   11   18 1   
    17   12   13 1   
    18   12   14 1   
    19   19   20 1   
    20   19   27 1   
    21   20   21 1   
    22   20   23 1   
    23   20   28 1   
    24   21   22 2   
    25   21   38 1   
    26   23   24 1   
    27   23   25 1   
    28   23   29 1   
    29   24   26 1   
    30   24   30 1   
    31   24   31 1   
    32   25   32 1   
    33   25   33 1   
    34   25   34 1   
    35   26   35 1   
    36   26   36 1   
    37   26   37 1   
    38   38   39 1   
    39   38   46 1   
    40   39   40 1   
    41   39   42 1   
    42   39   47 1   
    43   40   41 2   
    44   40   50 1   
    45   42   43 1   
    46   42   48 1   
    47   42   49 1   
    48   43   44 1   
    49   43   45 1   
    50   50   51 1   
    51   50   54 1   
    52   51   52 1   
    53   51   55 1   
    54   51   56 1   
    55   52   53 2   
    56   52   57 1   
    57   57   58 1   
    58   57   65 1   
    59   58   59 1   
    60   58   61 1   
    61   58   66 1   
    62   59   60 2   
    63   59   69 1   
    64   61   62 1   
    65   61   67 1   
    66   61   68 1   
    67   62   63 1   
    68   62   64 1   
    69   69   70 1   
    70   69   73 1   
    71   70   71 1   
    72   70   74 1   
    73   70   75 1   
    74   71   72 2   
    75   71   76 1   
    76   76   77 1   
    77   76   85 1   
    78   77   78 1   
    79   77   80 1   
    80   77   86 1   
    81   78   79 2   
    82   78   93 1   
    83   80   81 1   
    84   80   87 1   
    85   80   88 1   
    86   81   82 1   
    87   81   89 1   
    88   81   90 1   
    89   82   83 1   
    90   82   84 2   
    91   83   91 1   
    92   83   92 1   
    93   93   94 1   
    94   93  100 1   
    95   94   95 1   
    96   94   97 1   
    97   94  101 1   
    98   95   96 2   
    99   95  109 1   
   100   97   98 1   
   101   97   99 1   
   102   97  102 1   
   103   98  103 1   
   104   98  104 1   
   105   98  105 1   
   106   99  106 1   
   107   99  107 1   
   108   99  108 1   
   109  109  110 1   
   110  109  117 1   
   111  110  111 1   
   112  110  113 1   
   113  110  118 1   
   114  111  112 2   
   115  111  123 1   
   116  113  114 1   
   117  113  119 1   
   118  113  120 1   
   119  114  115 1   
   120  114  116 2   
   121  115  121 1   
   122  115  122 1   
   123  123  124 1   
   124  123  135 1   
   125  124  125 1   
   126  124  127 1   
   127  124  136 1   
   128  125  126 2   
   129  125  144 1   
   130  127  128 1   
   131  127  137 1   
   132  127  138 1   
   133  128  129 ar  
   134  128  130 ar  
   135  129  131 ar  
   136  129  139 1   
   137  130  132 ar  
   138  130  140 1   
   139  131  133 ar  
   140  131  141 1   
   141  132  133 ar  
   142  132  142 1   
   143  133  134 1   
   144  134  143 1   
   145  144  145 1   
   146  144  153 1   
   147  145  146 1   
   148  145  148 1   
   149  145  154 1   
   150  146  147 2   
   151  146  159 1   
   152  148  149 1   
   153  148  155 1   
   154  148  156 1   
   155  149  150 1   
   156  149  157 1   
   157  149  158 1   
   158  150  151 1   
   159  150  152 1   
   160  159  160 1   
   161  159  168 1   
   162  160  161 1   
   163  160  163 1   
   164  160  169 1   
   165  161  162 2   
   166  161  174 1   
   167  163  164 1   
   168  163  170 1   
   169  163  171 1   
   170  164  165 1   
   171  164  172 1   
   172  164  173 1   
   173  165  166 1   
   174  165  167 1   
   175  174  175 1   
   176  174  179 1   
   177  175  176 1   
   178  175  177 1   
   179  175  178 1   
   180  181  182 1   
   181  181  183 1   
   182  184  185 1   
   183  184  186 1   
   184  187  188 1   
   185  187  189 1   
@<TRIPOS>SUBSTRUCTURE
     1 MOL         1 TEMP              0 ****  ****    0 ROOT
