@<TRIPOS>MOLECULE
MOL
  181   177     1     0     0
SMALL
resp


@<TRIPOS>ATOM
      1 C1         -8.7540   -6.3100   -2.7790 c3        1 MOL     -0.336144
      2 C2         -7.4760   -5.7150   -2.1140 c         1 MOL      0.617090
      3 O1         -6.5610   -6.4610   -1.6720 o         1 MOL     -0.589577
      4 H1         -9.0320   -7.2320   -2.2680 hc        1 MOL      0.089457
      5 H2         -9.5710   -5.5930   -2.7030 hc        1 MOL      0.089457
      6 H3         -8.5520   -6.5230   -3.8290 hc        1 MOL      0.089457
      7 N1         -7.2500   -4.3970   -1.9020 n         1 MOL     -0.556982
      8 C3         -7.9830   -3.2900   -2.5100 c3        1 MOL      0.220322
      9 C4         -8.8320   -2.5170   -1.4620 c         1 MOL      0.398182
     10 O2         -9.7110   -1.7840   -1.8030 o         1 MOL     -0.563797
     11 C5         -7.0380   -2.3850   -3.3440 c3        1 MOL     -0.214032
     12 C6         -5.7200   -2.0510   -2.6800 c         1 MOL      0.697412
     13 O3         -5.5580   -2.1790   -1.4440 o         1 MOL     -0.762001
     14 O4         -4.8540   -1.4860   -3.3410 o         1 MOL     -0.762001
     15 H4         -6.3860   -4.2180   -1.4080 hn        1 MOL      0.369409
     16 H5         -8.6740   -3.5870   -3.2940 h1        1 MOL      0.034286
     17 H6         -7.5980   -1.4710   -3.5590 hc        1 MOL      0.065972
     18 H7         -6.9440   -2.8400   -4.3350 hc        1 MOL      0.065972
     19 N2         -8.5540   -2.7620   -0.1830 n         1 MOL     -0.281781
     20 C7         -9.2760   -2.2700    0.9760 c3        1 MOL      0.125858
     21 C8         -8.7830   -0.8050    1.2640 c         1 MOL      0.383314
     22 O5         -9.3140   -0.0800    2.1400 o         1 MOL     -0.553312
     23 C9         -9.1900   -3.2350    2.1480 c3        1 MOL     -0.345298
     24 H8         -7.8350   -3.4440    0.0160 hn        1 MOL      0.205792
     25 H9        -10.3320   -2.1830    0.7560 h1        1 MOL      0.070514
     26 H10        -9.6450   -2.7710    3.0170 hc        1 MOL      0.104116
     27 H11        -9.7190   -4.1330    1.8220 hc        1 MOL      0.104116
     28 H12        -8.2150   -3.5650    2.5130 hc        1 MOL      0.104116
     29 N3         -7.8030   -0.2950    0.5110 n         1 MOL     -0.206912
     30 C10        -7.2770    1.1150    0.5570 c3        1 MOL     -0.160034
     31 C11        -6.6350    1.4710   -0.8270 c         1 MOL      0.376754
     32 O6         -6.0900    0.6830   -1.5960 o         1 MOL     -0.461430
     33 C12        -6.2030    1.2730    1.6100 c3        1 MOL      0.239135
     34 C13        -5.3520    0.0470    1.7650 c         1 MOL      0.648324
     35 O7         -4.9530   -0.6270    0.7580 o         1 MOL     -0.666073
     36 O8         -5.0240   -0.2340    2.9470 o         1 MOL     -0.666073
     37 H13        -7.2750   -0.9580   -0.0350 hn        1 MOL      0.285466
     38 H14        -8.1370    1.7090    0.8580 h1        1 MOL      0.098480
     39 H15        -6.7070    1.5600    2.5340 hc        1 MOL     -0.046777
     40 H16        -5.6740    2.1960    1.4170 hc        1 MOL     -0.046777
     41 N4         -6.6830    2.7830   -1.1430 n         1 MOL     -0.214560
     42 C14        -6.0370    3.4020   -2.3150 c3        1 MOL     -0.289402
     43 C15        -4.4940    3.5350   -2.0130 c         1 MOL      0.575341
     44 O9         -3.8430    2.5960   -1.7280 o         1 MOL     -0.516656
     45 H17        -7.2630    3.3770   -0.5700 hn        1 MOL      0.242175
     46 H18        -6.4110    4.3950   -2.5690 h1        1 MOL      0.127247
     47 H19        -6.1830    2.8300   -3.2320 h1        1 MOL      0.127247
     48 N5         -3.8690    4.6640   -2.1370 n         1 MOL     -0.457192
     49 C16        -2.5720    4.9860   -1.6630 c3        1 MOL      0.142013
     50 C17        -2.5230    4.6890   -0.0730 c         1 MOL      0.550831
     51 O10        -3.3800    5.1420    0.6680 o         1 MOL     -0.545640
     52 C18        -2.2520    6.4240   -2.0790 c3        1 MOL     -0.414248
     53 C19        -2.0740    6.6580   -3.5850 c         1 MOL      0.751550
     54 N6         -2.9010    7.4460   -4.1460 n         1 MOL     -0.801273
     55 O11        -1.2750    6.0210   -4.2200 o         1 MOL     -0.566035
     56 H20        -4.4740    5.4600   -2.3080 hn        1 MOL      0.255731
     57 H21        -1.8720    4.2710   -2.0950 h1        1 MOL      0.078594
     58 H22        -1.3140    6.6060   -1.5560 hc        1 MOL      0.116634
     59 H23        -3.0170    7.0500   -1.6130 hc        1 MOL      0.116634
     60 H24        -3.7460    7.7600   -3.6930 hn        1 MOL      0.364191
     61 H25        -2.7530    7.5840   -5.1300 hn        1 MOL      0.364191
     62 N7         -1.6090    3.8390    0.2990 n         1 MOL     -0.505481
     63 C20        -1.6160    3.1620    1.6000 c3        1 MOL      0.222985
     64 C21        -2.4750    1.9160    1.6490 c         1 MOL      0.450552
     65 O12        -3.0490    1.3860    0.6670 o         1 MOL     -0.548367
     66 H26        -0.7900    3.7360   -0.2960 hn        1 MOL      0.301279
     67 H27        -2.1680    3.8510    2.2320 h1        1 MOL      0.038722
     68 H28        -0.6670    2.9940    2.1270 h1        1 MOL      0.038722
     69 N8         -2.6710    1.3610    2.8450 n         1 MOL     -0.152672
     70 C22        -1.9690    1.6800    4.1170 c3        1 MOL     -0.430192
     71 C23        -0.5390    1.0910    4.2790 c         1 MOL      0.774768
     72 O13         0.2900    1.5260    5.0020 o         1 MOL     -0.565103
     73 C24        -2.8050    1.1420    5.3270 c3        1 MOL      0.381141
     74 C25        -4.0740    2.0160    5.5240 c3        1 MOL     -0.289583
     75 O14        -3.3380   -0.1730    5.2080 oh        1 MOL     -0.600659
     76 H29        -3.4180    0.6750    2.8610 hn        1 MOL      0.156961
     77 H30        -1.8750    2.7650    4.1410 h1        1 MOL      0.107961
     78 H31        -2.1050    1.2720    6.1580 h1        1 MOL      0.037515
     79 H32        -3.9610   -0.0450    4.4890 ho        1 MOL      0.412315
     80 H33        -3.9250    3.0820    5.7100 hc        1 MOL      0.060176
     81 H34        -4.7780    1.9770    4.6960 hc        1 MOL      0.060176
     82 H35        -4.5340    1.7140    6.4700 hc        1 MOL      0.060176
     83 N9         -0.2990    0.0540    3.4050 n         1 MOL     -0.520212
     84 C26         1.0300   -0.6160    3.1230 c3        1 MOL      0.070746
     85 C27         1.2350   -0.5720    1.6170 c         1 MOL      0.326903
     86 O15         0.3270   -1.0870    0.9110 o         1 MOL     -0.493244
     87 C28         1.0890   -2.0600    3.7210 c3        1 MOL      0.021182
     88 C29         1.1320   -2.0160    5.2980 c3        1 MOL     -0.062447
     89 C30         2.2050   -3.0160    3.2110 c3        1 MOL     -0.229404
     90 C31         2.3530   -1.4130    5.9400 c3        1 MOL     -0.024646
     91 H36        -1.0360   -0.3790    2.8590 hn        1 MOL      0.229789
     92 H37         1.8720   -0.1180    3.5880 h1        1 MOL      0.169242
     93 H38         0.1450   -2.5430    3.4840 hc        1 MOL      0.010206
     94 H39         0.9780   -3.0120    5.7190 hc        1 MOL      0.028699
     95 H40         0.3070   -1.4890    5.7890 hc        1 MOL      0.028699
     96 H41         1.8710   -3.5090    2.3010 hc        1 MOL      0.084055
     97 H42         3.1420   -2.5010    3.0010 hc        1 MOL      0.084055
     98 H43         2.2840   -3.7560    4.0000 hc        1 MOL      0.084055
     99 H44         3.2790   -1.9240    5.6820 hc        1 MOL     -0.001244
    100 H45         2.4610   -0.3820    5.6060 hc        1 MOL     -0.001244
    101 H46         2.2500   -1.4140    7.0190 hc        1 MOL     -0.001244
    102 N10         2.3380   -0.0070    1.0930 n         1 MOL     -0.196625
    103 C32         3.5680    0.4750    1.7240 c3        1 MOL     -0.081151
    104 C33         4.7780    0.2490    0.7210 c         1 MOL      0.560307
    105 O16         4.7220   -0.1860   -0.4060 o         1 MOL     -0.518042
    106 C34         3.4710    1.9380    2.1980 c3        1 MOL     -0.087672
    107 C35         3.1120    3.0220    1.1900 c         1 MOL      0.649502
    108 O17         2.8360    4.1170    1.7130 o         1 MOL     -0.703527
    109 O18         3.2460    2.7710   -0.0560 o         1 MOL     -0.703527
    110 H47         2.4860   -0.1600    0.1050 hn        1 MOL      0.225097
    111 H48         3.7690   -0.1060    2.6260 h1        1 MOL      0.054747
    112 H49         4.4150    2.2450    2.6400 hc        1 MOL      0.005639
    113 H50         2.7320    2.0050    3.0000 hc        1 MOL      0.005639
    114 N11         5.9720    0.6120    1.2360 n         1 MOL     -0.499413
    115 C36         7.2180    0.8720    0.4540 c3        1 MOL      0.482728
    116 C37         8.3120   -0.1410    0.9300 c         1 MOL      0.089658
    117 O19         8.4180   -0.3110    2.1470 o         1 MOL     -0.443234
    118 C38         7.7450    2.3030    0.8220 c3        1 MOL     -0.507661
    119 C39         8.6470    2.8650   -0.2020 ca        1 MOL      0.300417
    120 C40         9.9790    2.7440    0.0870 ca        1 MOL     -0.263736
    121 C41         8.1230    3.3650   -1.3680 ca        1 MOL     -0.263736
    122 C42        10.8450    3.1480   -0.8880 ca        1 MOL     -0.066276
    123 C43         9.0390    3.7400   -2.3310 ca        1 MOL     -0.066276
    124 C44        10.3990    3.5240   -2.1340 ca        1 MOL     -0.190481
    125 H51         6.0000    0.7290    2.2430 hn        1 MOL      0.296945
    126 H52         6.9700    0.7510   -0.5960 h1        1 MOL      0.022127
    127 H53         8.1910    2.3020    1.8180 hc        1 MOL      0.143691
    128 H54         6.8840    2.9790    0.8480 hc        1 MOL      0.143691
    129 H55        10.2530    2.2550    1.0130 ha        1 MOL      0.169321
    130 H56         7.0630    3.4870   -1.5270 ha        1 MOL      0.169321
    131 H57        11.8690    2.8320   -0.7850 ha        1 MOL      0.089496
    132 H58         8.7660    4.1160   -3.3040 ha        1 MOL      0.089496
    133 H59        11.0610    3.5430   -2.9930 ha        1 MOL      0.108072
    134 N12         9.1310   -0.7760    0.0010 n         1 MOL      0.104349
    135 C45         9.1250   -0.6720   -1.4620 c3        1 MOL      0.021148
    136 C46         7.9970   -1.4540   -2.1090 c         1 MOL      0.486298
    137 O20         7.4890   -1.0220   -3.0920 o         1 MOL     -0.572838
    138 C47        10.4520   -1.0840   -1.9550 c3        1 MOL     -0.133367
    139 C48        10.8240   -2.0950   -0.9040 c3        1 MOL     -0.008454
    140 C49        10.2640   -1.6060    0.3630 c3        1 MOL     -0.156766
    141 H60         8.9080    0.3590   -1.7640 h1        1 MOL      0.045546
    142 H61        10.4260   -1.5400   -2.9400 hc        1 MOL      0.044110
    143 H62        11.0560   -0.1810   -2.0090 hc        1 MOL      0.044110
    144 H63        10.2640   -2.9650   -1.2660 hc        1 MOL      0.026813
    145 H64        11.8930   -2.2930   -0.8440 hc        1 MOL      0.026813
    146 H65        10.0010   -2.4150    1.0420 h1        1 MOL      0.065996
    147 H66        10.9130   -0.8320    0.7770 h1        1 MOL      0.065996
    148 N13         7.5960   -2.5490   -1.4890 n         1 MOL     -0.223402
    149 C50         6.3740   -3.2620   -1.8220 c3        1 MOL      0.053991
    150 C51         6.6720   -4.1900   -3.0150 c         1 MOL      0.281998
    151 O21         7.4290   -5.2160   -2.8550 o         1 MOL     -0.553684
    152 C52         6.0780   -4.0260   -0.5990 c3        1 MOL      0.135729
    153 C53         5.5340   -3.1910    0.5990 c3        1 MOL     -0.220138
    154 C54         5.6830   -4.0920    1.8240 c         1 MOL      0.723772
    155 O22         6.6610   -3.9730    2.6040 o         1 MOL     -0.733467
    156 O23         4.8770   -5.0100    1.9820 o         1 MOL     -0.733467
    157 H67         7.9160   -2.7060   -0.5440 hn        1 MOL      0.236282
    158 H68         5.6100   -2.5100   -2.0210 h1        1 MOL      0.081842
    159 H69         7.0210   -4.5380   -0.4080 hc        1 MOL     -0.006530
    160 H70         5.3230   -4.8200   -0.6880 hc        1 MOL     -0.006530
    161 H71         4.5010   -2.8850    0.4930 hc        1 MOL      0.002535
    162 H72         6.2140   -2.3610    0.7950 hc        1 MOL      0.002535
    163 N14         6.2570   -3.9450   -4.2730 n         1 MOL     -0.168914
    164 C55         5.4520   -2.8950   -4.8300 c3        1 MOL     -0.249748
    165 H73         6.0870   -2.0430   -5.0760 h1        1 MOL      0.101484
    166 H74         4.9610   -3.2550   -5.7340 h1        1 MOL      0.101484
    167 H75         4.6990   -2.5890   -4.1040 h1        1 MOL      0.101484
    168 H76         6.4890   -4.7240   -4.8760 hn        1 MOL      0.226887
    169 Ca1        -3.6310   -0.1370   -1.4040 Ca        1 MOL      1.738208
    170 O24        -2.2430   -1.7070    0.1720 oh        1 MOL     -0.850168
    171 H77        -2.5830   -1.7510    1.0640 ho        1 MOL      0.418415
    172 H78        -1.2860   -1.6920    0.2810 ho        1 MOL      0.418415
    173 O25        -1.0010    0.8680   -1.5320 oh        1 MOL     -0.850168
    174 H79        -0.0550    0.8980   -1.3420 ho        1 MOL      0.418415
    175 H80        -1.0560    0.7850   -2.4750 ho        1 MOL      0.418415
    176 O26        -1.8630   -2.1320   -2.8520 oh        1 MOL     -0.850168
    177 H81        -2.5640   -2.2790   -3.4870 ho        1 MOL      0.418415
    178 H82        -1.3430   -2.9310   -2.8750 ho        1 MOL      0.418415
    179 O27        -2.5680    0.8430   -3.7160 oh        1 MOL     -0.850168
    180 H83        -2.0780    1.6200   -3.9900 ho        1 MOL      0.418415
    181 H84        -2.8410    0.4260   -4.5420 ho        1 MOL      0.418415
@<TRIPOS>BOND
     1    1    2 1   
     2    1    4 1   
     3    1    5 1   
     4    1    6 1   
     5    2    3 2   
     6    2    7 1   
     7    7    8 1   
     8    7   15 1   
     9    8    9 1   
    10    8   11 1   
    11    8   16 1   
    12    9   10 2   
    13    9   19 1   
    14   11   12 1   
    15   11   17 1   
    16   11   18 1   
    17   12   13 1   
    18   12   14 1   
    19   19   20 1   
    20   19   24 1   
    21   20   21 1   
    22   20   23 1   
    23   20   25 1   
    24   21   22 2   
    25   21   29 1   
    26   23   26 1   
    27   23   27 1   
    28   23   28 1   
    29   29   30 1   
    30   29   37 1   
    31   30   31 1   
    32   30   33 1   
    33   30   38 1   
    34   31   32 2   
    35   31   41 1   
    36   33   34 1   
    37   33   39 1   
    38   33   40 1   
    39   34   35 1   
    40   34   36 1   
    41   41   42 1   
    42   41   45 1   
    43   42   43 1   
    44   42   46 1   
    45   42   47 1   
    46   43   44 2   
    47   43   48 1   
    48   48   49 1   
    49   48   56 1   
    50   49   50 1   
    51   49   52 1   
    52   49   57 1   
    53   50   51 2   
    54   50   62 1   
    55   52   53 1   
    56   52   58 1   
    57   52   59 1   
    58   53   54 1   
    59   53   55 2   
    60   54   60 1   
    61   54   61 1   
    62   62   63 1   
    63   62   66 1   
    64   63   64 1   
    65   63   67 1   
    66   63   68 1   
    67   64   65 2   
    68   64   69 1   
    69   69   70 1   
    70   69   76 1   
    71   70   71 1   
    72   70   73 1   
    73   70   77 1   
    74   71   72 2   
    75   71   83 1   
    76   73   74 1   
    77   73   75 1   
    78   73   78 1   
    79   74   80 1   
    80   74   81 1   
    81   74   82 1   
    82   75   79 1   
    83   83   84 1   
    84   83   91 1   
    85   84   85 1   
    86   84   87 1   
    87   84   92 1   
    88   85   86 2   
    89   85  102 1   
    90   87   88 1   
    91   87   89 1   
    92   87   93 1   
    93   88   90 1   
    94   88   94 1   
    95   88   95 1   
    96   89   96 1   
    97   89   97 1   
    98   89   98 1   
    99   90   99 1   
   100   90  100 1   
   101   90  101 1   
   102  102  103 1   
   103  102  110 1   
   104  103  104 1   
   105  103  106 1   
   106  103  111 1   
   107  104  105 2   
   108  104  114 1   
   109  106  107 1   
   110  106  112 1   
   111  106  113 1   
   112  107  108 1   
   113  107  109 1   
   114  114  115 1   
   115  114  125 1   
   116  115  116 1   
   117  115  118 1   
   118  115  126 1   
   119  116  117 2   
   120  116  134 1   
   121  118  119 1   
   122  118  127 1   
   123  118  128 1   
   124  119  120 ar  
   125  119  121 ar  
   126  120  122 ar  
   127  120  129 1   
   128  121  123 ar  
   129  121  130 1   
   130  122  124 ar  
   131  122  131 1   
   132  123  124 ar  
   133  123  132 1   
   134  124  133 1   
   135  134  135 1   
   136  134  140 1   
   137  135  136 1   
   138  135  138 1   
   139  135  141 1   
   140  136  137 2   
   141  136  148 1   
   142  138  139 1   
   143  138  142 1   
   144  138  143 1   
   145  139  140 1   
   146  139  144 1   
   147  139  145 1   
   148  140  146 1   
   149  140  147 1   
   150  148  149 1   
   151  148  157 1   
   152  149  150 1   
   153  149  152 1   
   154  149  158 1   
   155  150  151 2   
   156  150  163 1   
   157  152  153 1   
   158  152  159 1   
   159  152  160 1   
   160  153  154 1   
   161  153  161 1   
   162  153  162 1   
   163  154  155 1   
   164  154  156 1   
   165  163  164 1   
   166  163  168 1   
   167  164  165 1   
   168  164  166 1   
   169  164  167 1   
   170  170  171 1   
   171  170  172 1   
   172  173  174 1   
   173  173  175 1   
   174  176  177 1   
   175  176  178 1   
   176  179  180 1   
   177  179  181 1   
@<TRIPOS>SUBSTRUCTURE
     1 MOL         1 TEMP              0 ****  ****    0 ROOT
