@<TRIPOS>MOLECULE
MOL
  185   180     1     0     0
SMALL
resp


@<TRIPOS>ATOM
      1 C1         -6.9340   -6.4270    1.5370 c3        1 MOL     -0.278184
      2 C2         -7.7300   -5.1530    1.9060 c         1 MOL      0.672891
      3 O1         -7.8270   -4.8940    3.1130 o         1 MOL     -0.583025
      4 H1         -7.5970   -7.1390    1.0460 hc        1 MOL      0.070968
      5 H2         -6.1180   -6.1640    0.8630 hc        1 MOL      0.070968
      6 H3         -6.5270   -6.8770    2.4430 hc        1 MOL      0.070968
      7 N1         -8.2740   -4.3790    0.9160 n         1 MOL     -0.536044
      8 C3         -8.8660   -3.0230    0.9210 c3        1 MOL      0.139720
      9 C4         -7.8570   -1.8440    0.9330 c         1 MOL      0.596671
     10 O2         -6.6730   -1.8940    0.6340 o         1 MOL     -0.452383
     11 C5         -9.7200   -2.9100   -0.4040 c3        1 MOL     -0.364284
     12 C6         -8.8320   -3.0200   -1.6610 c         1 MOL      0.742166
     13 O3         -8.9880   -2.2680   -2.6490 o         1 MOL     -0.665929
     14 O4         -7.9400   -3.9520   -1.7680 o         1 MOL     -0.665929
     15 H4         -7.9910   -4.5790   -0.0330 hn        1 MOL      0.250278
     16 H5         -9.4820   -2.9770    1.8130 h1        1 MOL      0.050447
     17 H6        -10.2220   -1.9460   -0.4330 hc        1 MOL      0.090532
     18 H7        -10.3830   -3.7800   -0.3670 hc        1 MOL      0.090532
     19 N2         -8.3420   -0.6580    1.3000 n         1 MOL     -0.647871
     20 C7         -7.7110    0.6020    0.9210 c3        1 MOL      0.207859
     21 C8         -6.4470    0.8230    1.7380 c         1 MOL      0.375021
     22 O5         -6.2070    0.2250    2.8190 o         1 MOL     -0.472770
     23 C9         -8.7920    1.6980    1.0610 c3        1 MOL     -0.104717
     24 C10        -9.5760    1.7410   -0.2950 c3        1 MOL     -0.011233
     25 C11       -10.3640    3.0740   -0.4940 c3        1 MOL     -0.098674
     26 C12        -9.5400    4.3590   -0.4840 c3        1 MOL      0.094811
     27 N3        -10.3130    5.6410   -0.5120 n4        1 MOL     -0.427812
     28 H8         -9.2940   -0.5770    1.6490 hn        1 MOL      0.319062
     29 H9         -7.4390    0.5420   -0.1240 h1        1 MOL      0.042310
     30 H10        -8.2760    2.6350    1.3000 hc        1 MOL      0.044538
     31 H11        -9.4250    1.3860    1.8910 hc        1 MOL      0.044538
     32 H12       -10.2290    0.8710   -0.3350 hc        1 MOL      0.057008
     33 H13        -8.8120    1.7430   -1.0720 hc        1 MOL      0.057008
     34 H14       -11.1120    3.1600    0.2960 hc        1 MOL      0.045748
     35 H15       -10.7900    2.9630   -1.4980 hc        1 MOL      0.045748
     36 H16        -8.9320    4.2880   -1.3940 hx        1 MOL      0.070933
     37 H17        -8.8850    4.2640    0.3810 hx        1 MOL      0.070933
     38 H18       -11.0860    5.5710    0.1270 hn        1 MOL      0.348944
     39 H19        -9.6640    6.3830   -0.3050 hn        1 MOL      0.348944
     40 H20       -10.7740    5.7860   -1.3960 hn        1 MOL      0.348944
     41 N4         -5.5770    1.6150    1.2370 n         1 MOL     -0.439506
     42 C13        -4.1280    1.6600    1.6430 c3        1 MOL      0.160570
     43 C14        -3.6410    3.1560    1.5740 c         1 MOL      0.368982
     44 O6         -3.8860    3.8750    0.5770 o         1 MOL     -0.498735
     45 C15        -3.3930    0.6800    0.7930 c3        1 MOL      0.053014
     46 C16        -1.8960    0.5540    1.0570 c         1 MOL      0.508332
     47 O7         -1.0690    1.4870    1.0760 o         1 MOL     -0.665657
     48 O8         -1.3790   -0.5810    1.2400 o         1 MOL     -0.665657
     49 H21        -5.8170    2.1970    0.4490 hn        1 MOL      0.244653
     50 H22        -4.0380    1.4330    2.7080 h1        1 MOL      0.026146
     51 H23        -3.4790    0.8860   -0.2700 hc        1 MOL      0.041196
     52 H24        -3.6830   -0.3620    0.8860 hc        1 MOL      0.041196
     53 N5         -2.9730    3.6700    2.6030 n         1 MOL     -0.262392
     54 C17        -2.3310    4.9580    2.6190 c3        1 MOL     -0.224461
     55 C18        -1.1840    5.1450    1.6510 c         1 MOL      0.620644
     56 O9         -0.4610    6.1430    1.7150 o         1 MOL     -0.588296
     57 H25        -2.9180    3.0870    3.4190 hn        1 MOL      0.285093
     58 H26        -2.0530    5.1640    3.6540 h1        1 MOL      0.120941
     59 H27        -3.0760    5.7120    2.3150 h1        1 MOL      0.120941
     60 N6         -0.8970    4.2370    0.7420 n         1 MOL     -0.325796
     61 C19        -0.1490    4.5240   -0.4540 c3        1 MOL      0.098008
     62 C20        -0.6860    3.7280   -1.6150 c         1 MOL      0.325496
     63 O10        -0.0160    3.6260   -2.6640 o         1 MOL     -0.495622
     64 C21         1.4230    4.4990   -0.2690 c3        1 MOL     -0.361923
     65 C22         2.1360    3.1520   -0.2110 c         1 MOL      0.726708
     66 N7          3.1140    2.9340   -1.0890 n         1 MOL     -0.817541
     67 O11         1.9450    2.3670    0.6810 o         1 MOL     -0.586319
     68 H28        -1.2460    3.2950    0.8610 hn        1 MOL      0.180208
     69 H29        -0.3850    5.5570   -0.7150 h1        1 MOL      0.107605
     70 H30         1.6930    4.9920    0.6560 hc        1 MOL      0.126336
     71 H31         1.8990    5.0640   -1.0780 hc        1 MOL      0.126336
     72 H32         3.2710    3.5910   -1.8430 hn        1 MOL      0.372540
     73 H33         3.6040    2.0730   -0.9100 hn        1 MOL      0.372540
     74 N8         -1.8810    3.0660   -1.5530 n         1 MOL     -0.061244
     75 C23        -2.4000    2.2250   -2.6460 c3        1 MOL     -0.236253
     76 C24        -1.5390    0.9940   -3.1020 c         1 MOL      0.553677
     77 O12        -1.4420    0.8560   -4.2920 o         1 MOL     -0.524367
     78 H34        -2.4840    3.2390   -0.7640 hn        1 MOL      0.069839
     79 H35        -2.7460    2.8900   -3.4380 h1        1 MOL      0.113746
     80 H36        -3.3300    1.8110   -2.2480 h1        1 MOL      0.113746
     81 N9         -0.7650    0.3000   -2.2390 n         1 MOL     -0.275408
     82 C25         0.0070   -0.8460   -2.5460 c3        1 MOL     -0.038469
     83 C26         1.3390   -0.8400   -1.8850 c         1 MOL      0.636574
     84 O13         1.5440   -0.2190   -0.8520 o         1 MOL     -0.529417
     85 C27        -0.7330   -2.1700   -2.1540 c3        1 MOL      0.028621
     86 C28        -2.1730   -2.3540   -2.4790 ca        1 MOL     -0.147531
     87 C29        -2.5920   -2.1810   -3.7820 ca        1 MOL     -0.074733
     88 C30        -3.0700   -2.7100   -1.4480 ca        1 MOL     -0.074733
     89 C31        -3.9530   -2.4720   -4.1100 ca        1 MOL     -0.323573
     90 C32        -4.4120   -3.1170   -1.7810 ca        1 MOL     -0.323573
     91 C33        -4.8070   -2.9810   -3.1420 ca        1 MOL      0.448949
     92 O14        -6.0480   -3.2580   -3.5020 oh        1 MOL     -0.547468
     93 H37        -0.6720    0.6910   -1.3080 hn        1 MOL      0.196064
     94 H38         0.1340   -0.9760   -3.6230 h1        1 MOL      0.076995
     95 H39        -0.5240   -2.2850   -1.0940 hc        1 MOL      0.026003
     96 H40        -0.1970   -3.0180   -2.5680 hc        1 MOL      0.026003
     97 H41        -1.9160   -1.8930   -4.5760 ha        1 MOL      0.108271
     98 H42        -2.6090   -2.9270   -0.4960 ha        1 MOL      0.108271
     99 H43        -4.2890   -2.3910   -5.1320 ha        1 MOL      0.154582
    100 H44        -5.0370   -3.3620   -0.9310 ha        1 MOL      0.154582
    101 H45        -6.6050   -3.3900   -2.7330 ho        1 MOL      0.419851
    102 N10         2.3420   -1.4890   -2.5440 n         1 MOL     -0.825540
    103 C34         3.6050   -1.6600   -1.8510 c3        1 MOL      0.650524
    104 C35         4.4680   -0.3890   -2.0530 c         1 MOL      0.091655
    105 O15         4.9360    0.2020   -1.0730 o         1 MOL     -0.345604
    106 C36         4.3130   -2.9100   -2.4010 c3        1 MOL     -0.101507
    107 C37         3.4830   -4.2110   -2.3690 c3        1 MOL      0.028161
    108 C38         5.6270   -3.1650   -1.6930 c3        1 MOL     -0.354095
    109 C39         2.9280   -4.6220   -1.0140 c3        1 MOL     -0.196637
    110 H46         2.2200   -1.8630   -3.4800 hn        1 MOL      0.363218
    111 H47         3.5000   -1.7400   -0.7700 h1        1 MOL     -0.066512
    112 H48         4.5140   -2.7000   -3.4410 hc        1 MOL     -0.000174
    113 H49         4.1830   -5.0250   -2.5410 hc        1 MOL      0.024809
    114 H50         2.6910   -4.3270   -3.1040 hc        1 MOL      0.024809
    115 H51         6.0370   -4.1670   -1.8280 hc        1 MOL      0.113094
    116 H52         6.4140   -2.4510   -1.9300 hc        1 MOL      0.113094
    117 H53         5.4860   -3.1760   -0.6190 hc        1 MOL      0.113094
    118 H54         2.0110   -4.0900   -0.7520 hc        1 MOL      0.058696
    119 H55         2.7170   -5.6860   -1.0030 hc        1 MOL      0.058696
    120 H56         3.7100   -4.4840   -0.2720 hc        1 MOL      0.058696
    121 N11         4.5960   -0.0040   -3.3290 n         1 MOL     -0.150317
    122 C40         5.3570    1.2360   -3.7350 c3        1 MOL     -0.224969
    123 C41         6.8210    1.1120   -3.3160 c         1 MOL      0.341625
    124 O16         7.4200    2.2020   -3.0420 o         1 MOL     -0.465502
    125 C42         5.1740    1.3840   -5.2240 c3        1 MOL      0.348098
    126 O17         3.8140    1.4210   -5.4780 oh        1 MOL     -0.599876
    127 H57         4.1440   -0.4890   -4.0840 hn        1 MOL      0.230055
    128 H58         4.8640    1.9950   -3.1350 h1        1 MOL      0.151892
    129 H59         5.6350    0.6160   -5.8570 h1        1 MOL      0.023040
    130 H60         5.5880    2.3490   -5.5020 h1        1 MOL      0.023040
    131 H61         3.4560    2.0090   -4.8030 ho        1 MOL      0.394177
    132 N12         7.5280   -0.0080   -3.3220 n         1 MOL     -0.299181
    133 C43         8.8800   -0.2710   -2.8010 c3        1 MOL      0.247311
    134 C44         9.1800    0.1690   -1.3910 c         1 MOL      0.408226
    135 O18        10.2260    0.6580   -0.9650 o         1 MOL     -0.509056
    136 C45         9.8980    0.2010   -3.8590 c3        1 MOL     -0.350228
    137 H62         7.0300   -0.7880   -3.7190 hn        1 MOL      0.211995
    138 H63         9.0790   -1.3350   -2.6920 h1        1 MOL      0.052279
    139 H64         9.9580    1.2850   -3.9490 hc        1 MOL      0.099007
    140 H65        10.8660   -0.2680   -3.7340 hc        1 MOL      0.099007
    141 H66         9.5610   -0.1460   -4.8420 hc        1 MOL      0.099007
    142 N13         8.1420   -0.0180   -0.5440 n         1 MOL     -0.122685
    143 C46         8.0900    0.4750    0.8180 c3        1 MOL      0.036418
    144 C47         7.3020   -0.4090    1.7990 c         1 MOL      0.504880
    145 O19         6.6680   -1.3770    1.3800 o         1 MOL     -0.470465
    146 C48         7.4370    1.9640    0.7680 c3        1 MOL     -0.279755
    147 H67         7.3670   -0.6040   -0.8080 hn        1 MOL     -0.026701
    148 H68         9.1280    0.4470    1.1340 h1        1 MOL      0.057633
    149 H69         7.9700    2.6660    0.1280 hc        1 MOL      0.093503
    150 H70         6.4440    1.9220    0.3240 hc        1 MOL      0.093503
    151 H71         7.3850    2.3680    1.7860 hc        1 MOL      0.093503
    152 N14         7.3190   -0.1160    3.1120 n         1 MOL     -0.495099
    153 C49         6.8320   -0.9840    4.2180 c3        1 MOL     -0.051681
    154 C50         7.3420   -2.4560    4.1350 c         1 MOL      0.471633
    155 O20         6.7500   -3.2930    4.8500 o         1 MOL     -0.489806
    156 C51         5.3420   -1.0010    4.3970 c3        1 MOL      0.012030
    157 C52         4.6860    0.3820    4.5630 c3        1 MOL      0.116663
    158 C53         3.2230    0.3250    4.9580 c         1 MOL      0.524941
    159 O21         2.7360    0.8320    6.0310 o         1 MOL     -0.655444
    160 O22         2.4850   -0.1970    4.0610 o         1 MOL     -0.655444
    161 H72         7.9200    0.6780    3.3030 hn        1 MOL      0.300755
    162 H73         7.2890   -0.5290    5.0920 h1        1 MOL      0.103752
    163 H74         5.1840   -1.5330    5.3330 hc        1 MOL      0.023425
    164 H75         4.9110   -1.5050    3.5370 hc        1 MOL      0.023425
    165 H76         4.7500    0.9300    3.6310 hc        1 MOL     -0.055532
    166 H77         5.2420    0.9310    5.3150 hc        1 MOL     -0.055532
    167 N15         8.5130   -2.6790    3.5150 n         1 MOL     -0.329763
    168 C54         9.0580   -3.9780    3.0740 c3        1 MOL     -0.136959
    169 H78         8.2450   -4.6100    2.7170 h1        1 MOL      0.090366
    170 H79         9.7730   -3.8170    2.2670 h1        1 MOL      0.090366
    171 H80         9.5570   -4.4660    3.9110 h1        1 MOL      0.090366
    172 H81         9.0240   -1.9090    3.1230 hn        1 MOL      0.246934
    173 Ca1         1.0980    0.2130    1.9430 Ca        1 MOL      1.814448
    174 O23         0.6020    2.1340    3.7200 oh        1 MOL     -0.886520
    175 H82        -0.1490    2.2750    4.3000 ho        1 MOL      0.426260
    176 H83         1.2120    2.8280    3.9480 ho        1 MOL      0.426260
    177 O24         3.8210    0.0010    1.4390 oh        1 MOL     -0.886520
    178 H84         4.4440   -0.7050    1.6470 ho        1 MOL      0.426260
    179 H85         4.1970    0.4240    0.6680 ho        1 MOL      0.426260
    180 O25         1.7850   -2.4670    1.9960 oh        1 MOL     -0.886520
    181 H86         2.4530   -2.8760    2.5500 ho        1 MOL      0.426260
    182 H87         1.2290   -3.1820    1.7070 ho        1 MOL      0.426260
    183 O26        -0.0290   -1.3690    3.7640 oh        1 MOL     -0.886520
    184 H88         0.2010   -1.2390    4.6840 ho        1 MOL      0.426260
    185 H89        -0.6610   -2.0870    3.7800 ho        1 MOL      0.426260
@<TRIPOS>BOND
     1    1    2 1   
     2    1    4 1   
     3    1    5 1   
     4    1    6 1   
     5    2    3 2   
     6    2    7 1   
     7    7    8 1   
     8    7   15 1   
     9    8    9 1   
    10    8   11 1   
    11    8   16 1   
    12    9   10 2   
    13    9   19 1   
    14   11   12 1   
    15   11   17 1   
    16   11   18 1   
    17   12   13 1   
    18   12   14 1   
    19   19   20 1   
    20   19   28 1   
    21   20   21 1   
    22   20   23 1   
    23   20   29 1   
    24   21   22 2   
    25   21   41 1   
    26   23   24 1   
    27   23   30 1   
    28   23   31 1   
    29   24   25 1   
    30   24   32 1   
    31   24   33 1   
    32   25   26 1   
    33   25   34 1   
    34   25   35 1   
    35   26   27 1   
    36   26   36 1   
    37   26   37 1   
    38   27   38 1   
    39   27   39 1   
    40   27   40 1   
    41   41   42 1   
    42   41   49 1   
    43   42   43 1   
    44   42   45 1   
    45   42   50 1   
    46   43   44 2   
    47   43   53 1   
    48   45   46 1   
    49   45   51 1   
    50   45   52 1   
    51   46   47 1   
    52   46   48 1   
    53   53   54 1   
    54   53   57 1   
    55   54   55 1   
    56   54   58 1   
    57   54   59 1   
    58   55   56 2   
    59   55   60 1   
    60   60   61 1   
    61   60   68 1   
    62   61   62 1   
    63   61   64 1   
    64   61   69 1   
    65   62   63 2   
    66   62   74 1   
    67   64   65 1   
    68   64   70 1   
    69   64   71 1   
    70   65   66 1   
    71   65   67 2   
    72   66   72 1   
    73   66   73 1   
    74   74   75 1   
    75   74   78 1   
    76   75   76 1   
    77   75   79 1   
    78   75   80 1   
    79   76   77 2   
    80   76   81 1   
    81   81   82 1   
    82   81   93 1   
    83   82   83 1   
    84   82   85 1   
    85   82   94 1   
    86   83   84 2   
    87   83  102 1   
    88   85   86 1   
    89   85   95 1   
    90   85   96 1   
    91   86   87 ar  
    92   86   88 ar  
    93   87   89 ar  
    94   87   97 1   
    95   88   90 ar  
    96   88   98 1   
    97   89   91 ar  
    98   89   99 1   
    99   90   91 ar  
   100   90  100 1   
   101   91   92 1   
   102   92  101 1   
   103  102  103 1   
   104  102  110 1   
   105  103  104 1   
   106  103  106 1   
   107  103  111 1   
   108  104  105 2   
   109  104  121 1   
   110  106  107 1   
   111  106  108 1   
   112  106  112 1   
   113  107  109 1   
   114  107  113 1   
   115  107  114 1   
   116  108  115 1   
   117  108  116 1   
   118  108  117 1   
   119  109  118 1   
   120  109  119 1   
   121  109  120 1   
   122  121  122 1   
   123  121  127 1   
   124  122  123 1   
   125  122  125 1   
   126  122  128 1   
   127  123  124 2   
   128  123  132 1   
   129  125  126 1   
   130  125  129 1   
   131  125  130 1   
   132  126  131 1   
   133  132  133 1   
   134  132  137 1   
   135  133  134 1   
   136  133  136 1   
   137  133  138 1   
   138  134  135 2   
   139  134  142 1   
   140  136  139 1   
   141  136  140 1   
   142  136  141 1   
   143  142  143 1   
   144  142  147 1   
   145  143  144 1   
   146  143  146 1   
   147  143  148 1   
   148  144  145 2   
   149  144  152 1   
   150  146  149 1   
   151  146  150 1   
   152  146  151 1   
   153  152  153 1   
   154  152  161 1   
   155  153  154 1   
   156  153  156 1   
   157  153  162 1   
   158  154  155 2   
   159  154  167 1   
   160  156  157 1   
   161  156  163 1   
   162  156  164 1   
   163  157  158 1   
   164  157  165 1   
   165  157  166 1   
   166  158  159 1   
   167  158  160 1   
   168  167  168 1   
   169  167  172 1   
   170  168  169 1   
   171  168  170 1   
   172  168  171 1   
   173  174  175 1   
   174  174  176 1   
   175  177  178 1   
   176  177  179 1   
   177  180  181 1   
   178  180  182 1   
   179  183  184 1   
   180  183  185 1   
@<TRIPOS>SUBSTRUCTURE
     1 MOL         1 TEMP              0 ****  ****    0 ROOT
