@<TRIPOS>MOLECULE
MOL
  188   182     1     0     0
SMALL
resp


@<TRIPOS>ATOM
      1 C1          8.3960    6.3530    0.3770 c3        1 MOL     -0.402908
      2 C2          9.3820    5.3090    0.8940 c         1 MOL      0.673872
      3 O1         10.1140    5.6890    1.8090 o         1 MOL     -0.538437
      4 H1          8.9390    7.1310   -0.1590 hc        1 MOL      0.098275
      5 H2          7.6830    5.8770   -0.2960 hc        1 MOL      0.098275
      6 H3          7.8630    6.7960    1.2180 hc        1 MOL      0.098275
      7 N1          9.3440    4.0770    0.3140 n         1 MOL     -0.511704
      8 C3         10.2240    2.9610    0.5700 c3        1 MOL     -0.088667
      9 C4          9.5910    1.5970    0.0820 c         1 MOL      0.805531
     10 O2          9.2530    1.4910   -1.0730 o         1 MOL     -0.564264
     11 C5         11.5490    3.3040   -0.0670 c3        1 MOL     -0.180928
     12 C6         12.4730    2.1370    0.0200 c         1 MOL      0.659456
     13 O3         12.7800    1.8030    1.2130 o         1 MOL     -0.648778
     14 O4         12.8860    1.5580   -1.0180 o         1 MOL     -0.648778
     15 H4          8.5340    3.8430   -0.2370 hn        1 MOL      0.284300
     16 H5         10.3570    2.9530    1.6500 h1        1 MOL      0.082064
     17 H6         11.8710    4.1150    0.5770 hc        1 MOL      0.072362
     18 H7         11.4140    3.5820   -1.1200 hc        1 MOL      0.072362
     19 N2          9.4110    0.5960    0.9600 n         1 MOL     -0.717821
     20 C7          8.5250   -0.5490    0.6000 c3        1 MOL      0.328458
     21 C8          7.0790   -0.3290    1.0510 c         1 MOL      0.442734
     22 O5          6.9080    0.3910    2.0430 o         1 MOL     -0.516116
     23 C9          9.0460   -1.8310    1.3190 c3        1 MOL     -0.091363
     24 C10         8.5640   -3.1680    0.7480 c3        1 MOL      0.066681
     25 C11         8.8220   -4.3150    1.7100 c3        1 MOL     -0.027055
     26 C12         8.5240   -5.6230    1.0400 c3        1 MOL      0.175673
     27 N3          8.5440   -6.7810    1.9560 n4        1 MOL     -0.278309
     28 H8          9.7260    0.7260    1.9120 hn        1 MOL      0.330831
     29 H9          8.5140   -0.7120   -0.4720 h1        1 MOL      0.013978
     30 H10         8.7560   -1.6580    2.3630 hc        1 MOL      0.054391
     31 H11        10.1290   -1.7420    1.2200 hc        1 MOL      0.054391
     32 H12         8.8390   -3.3580   -0.2850 hc        1 MOL     -0.012965
     33 H13         7.4720   -3.1240    0.7000 hc        1 MOL     -0.012965
     34 H14         8.1870   -4.0660    2.5630 hc        1 MOL      0.005028
     35 H15         9.8400   -4.2300    2.0840 hc        1 MOL      0.005028
     36 H16         9.2630   -5.8240    0.2680 hx        1 MOL      0.036946
     37 H17         7.5440   -5.5430    0.5730 hx        1 MOL      0.036946
     38 H18         9.3950   -6.7060    2.5100 hn        1 MOL      0.246606
     39 H19         7.7120   -6.9030    2.5110 hn        1 MOL      0.246606
     40 H20         8.7010   -7.6420    1.4580 hn        1 MOL      0.246606
     41 N4          6.1110   -0.9690    0.4190 n         1 MOL     -0.489151
     42 C13         4.7070   -0.9710    0.9350 c3        1 MOL      0.275974
     43 C14         4.1370   -2.3950    1.0210 c         1 MOL      0.417407
     44 O6          4.3500   -3.2810    0.1980 o         1 MOL     -0.493475
     45 C15         3.9450   -0.0830   -0.0750 c3        1 MOL     -0.413002
     46 C16         2.4420    0.0310    0.2210 c         1 MOL      0.671827
     47 O7          1.7610   -1.0230    0.2070 o         1 MOL     -0.605567
     48 O8          1.9760    1.1430    0.5040 o         1 MOL     -0.605567
     49 H21         6.2180   -1.3630   -0.5030 hn        1 MOL      0.281268
     50 H22         4.6520   -0.5440    1.9320 h1        1 MOL      0.013346
     51 H23         4.0200   -0.5130   -1.0680 hc        1 MOL      0.123684
     52 H24         4.4060    0.8990   -0.0840 hc        1 MOL      0.123684
     53 N5          3.3660   -2.6270    2.0150 n         1 MOL     -0.311865
     54 C17         2.7810   -3.9170    2.4460 c3        1 MOL     -0.095840
     55 C18         1.8060   -4.5690    1.4450 c         1 MOL      0.474234
     56 O9          1.7040   -5.8060    1.3280 o         1 MOL     -0.552478
     57 H25         3.3210   -1.8860    2.7150 hn        1 MOL      0.248465
     58 H26         2.2840   -3.7380    3.3940 h1        1 MOL      0.096219
     59 H27         3.5610   -4.6140    2.7490 h1        1 MOL      0.096219
     60 N6          1.0590   -3.7370    0.7040 n         1 MOL     -0.040574
     61 C19         0.1550   -4.2560   -0.3690 c3        1 MOL      0.075921
     62 C20         0.4880   -3.6230   -1.7260 c         1 MOL      0.451593
     63 O10        -0.3320   -3.4230   -2.6080 o         1 MOL     -0.540144
     64 C21        -1.3450   -4.1980    0.0390 c3        1 MOL     -0.353590
     65 C22        -1.8570   -2.8720    0.5560 c         1 MOL      0.602571
     66 N7         -2.9980   -2.8120    1.1340 n         1 MOL     -0.710125
     67 O11        -1.3200   -1.8300    0.3340 o         1 MOL     -0.487937
     68 H28         1.2580   -2.7540    0.7870 hn        1 MOL     -0.202724
     69 H29         0.4160   -5.2910   -0.5440 h1        1 MOL      0.088732
     70 H30        -1.4870   -4.9410    0.8290 hc        1 MOL      0.137331
     71 H31        -1.9030   -4.3490   -0.8870 hc        1 MOL      0.137331
     72 H32        -3.6100   -3.6210    1.1930 hn        1 MOL      0.338143
     73 H33        -3.3890   -1.9000    1.3190 hn        1 MOL      0.338143
     74 N8          1.7250   -3.1060   -1.8200 n         1 MOL     -0.197353
     75 C23         2.4170   -2.5760   -3.0200 c3        1 MOL     -0.237419
     76 C24         2.1040   -1.1430   -3.5360 c         1 MOL      0.608138
     77 O12         2.5840   -0.7510   -4.5720 o         1 MOL     -0.529675
     78 H34         2.3290   -3.2770   -1.0280 hn        1 MOL      0.182460
     79 H35         2.0780   -3.2420   -3.8150 h1        1 MOL      0.115942
     80 H36         3.4540   -2.8120   -2.8050 h1        1 MOL      0.115942
     81 N9          1.2340   -0.4550   -2.7840 n         1 MOL     -0.351250
     82 C25         0.4420    0.6920   -3.1650 c3        1 MOL     -0.087894
     83 C26        -0.8430    0.8210   -2.2520 c         1 MOL      0.297797
     84 O13        -0.7850    0.8910   -0.9920 o         1 MOL     -0.528800
     85 C27         1.2590    1.9790   -2.9520 c3        1 MOL     -0.102549
     86 C28         0.6470    3.2870   -3.3720 ca        1 MOL      0.014528
     87 C29         0.3730    3.6180   -4.6920 ca        1 MOL     -0.099023
     88 C30         0.1450    4.1110   -2.3480 ca        1 MOL     -0.099023
     89 C31        -0.4610    4.6980   -5.0060 ca        1 MOL     -0.307209
     90 C32        -0.7140    5.2010   -2.6270 ca        1 MOL     -0.307209
     91 C33        -1.0520    5.5240   -3.9970 ca        1 MOL      0.407533
     92 O14        -1.8390    6.5680   -4.3080 oh        1 MOL     -0.531799
     93 H37         1.1030   -0.8220   -1.8510 hn        1 MOL      0.322454
     94 H38         0.2490    0.6270   -4.2420 h1        1 MOL      0.128251
     95 H39         2.2060    1.9840   -3.4900 hc        1 MOL      0.074028
     96 H40         1.4740    1.9680   -1.8800 hc        1 MOL      0.074028
     97 H41         0.5730    2.8490   -5.4250 ha        1 MOL      0.121722
     98 H42         0.3590    3.8810   -1.3110 ha        1 MOL      0.121722
     99 H43        -0.6710    4.9810   -6.0320 ha        1 MOL      0.155341
    100 H44        -1.1470    5.7330   -1.7890 ha        1 MOL      0.155341
    101 H45        -2.1540    7.1980   -3.6630 ho        1 MOL      0.413809
    102 N10        -2.0280    0.9270   -2.8180 n         1 MOL     -0.271943
    103 C34        -3.3260    0.9640   -2.0660 c3        1 MOL      0.187861
    104 C35        -3.7730   -0.4370   -1.6250 c         1 MOL      0.151549
    105 O15        -4.3550   -0.6870   -0.5570 o         1 MOL     -0.486378
    106 C36        -4.4050    1.6640   -2.8680 c3        1 MOL      0.004546
    107 C37        -4.0260    3.2050   -3.1180 c3        1 MOL      0.079137
    108 C38        -5.7850    1.6040   -2.2370 c3        1 MOL     -0.474637
    109 C39        -3.4590    3.9150   -1.8530 c3        1 MOL      0.046753
    110 H46        -1.9930    0.9000   -3.8240 hn        1 MOL      0.231907
    111 H47        -3.0680    1.5710   -1.2030 h1        1 MOL      0.110539
    112 H48        -4.4550    1.1270   -3.8130 hc        1 MOL     -0.007797
    113 H49        -4.9430    3.7190   -3.4120 hc        1 MOL      0.006066
    114 H50        -3.3270    3.3500   -3.9440 hc        1 MOL      0.006066
    115 H51        -6.5240    1.9140   -2.9810 hc        1 MOL      0.138656
    116 H52        -6.0680    0.5780   -1.9970 hc        1 MOL      0.138656
    117 H53        -5.8800    2.2530   -1.3750 hc        1 MOL      0.138656
    118 H54        -4.1020    3.7070   -0.9870 hc        1 MOL     -0.030979
    119 H55        -2.5150    3.4710   -1.5460 hc        1 MOL     -0.030979
    120 H56        -3.3740    4.9670   -2.1180 hc        1 MOL     -0.030979
    121 N11        -3.6350   -1.4050   -2.6010 n         1 MOL     -0.103602
    122 C40        -3.9690   -2.8270   -2.4670 c3        1 MOL     -0.086081
    123 C41        -5.4110   -3.0660   -2.0100 c         1 MOL      0.611997
    124 O16        -5.6420   -3.9700   -1.2900 o         1 MOL     -0.534605
    125 C42        -3.8080   -3.5030   -3.8780 c3        1 MOL     -0.030031
    126 O17        -4.5730   -2.7220   -4.7770 oh        1 MOL     -0.653118
    127 H57        -3.2040   -1.1880   -3.4820 hn        1 MOL      0.260843
    128 H58        -3.4040   -3.3190   -1.6780 h1        1 MOL      0.069075
    129 H59        -4.1830   -4.5260   -3.9200 h1        1 MOL      0.104490
    130 H60        -2.7540   -3.4040   -4.1470 h1        1 MOL      0.104490
    131 H61        -4.7090   -3.3290   -5.5180 ho        1 MOL      0.443092
    132 N12        -6.3410   -2.2150   -2.4550 n         1 MOL     -0.278178
    133 C43        -7.7180   -2.1360   -2.2050 c3        1 MOL      0.053966
    134 C44        -8.0040   -2.1980   -0.6600 c         1 MOL      0.605309
    135 O18        -8.9430   -2.8380   -0.2610 o         1 MOL     -0.523996
    136 C45        -8.4320   -3.1930   -3.0550 c3        1 MOL     -0.394885
    137 H62        -5.9660   -1.5370   -3.1040 hn        1 MOL      0.243400
    138 H63        -8.0510   -1.1390   -2.5070 h1        1 MOL      0.087645
    139 H64        -9.5170   -3.0320   -3.0600 hc        1 MOL      0.115968
    140 H65        -8.1300   -3.0910   -4.0920 hc        1 MOL      0.115968
    141 H66        -8.2210   -4.1750   -2.6310 hc        1 MOL      0.115968
    142 N13        -7.1810   -1.5490    0.1630 n         1 MOL     -0.844677
    143 C46        -7.5070   -1.3090    1.5700 c3        1 MOL      0.799470
    144 C47        -7.7130    0.1830    1.9230 c         1 MOL      0.158606
    145 O19        -7.1770    1.1050    1.2280 o         1 MOL     -0.450214
    146 C48        -6.4700   -2.0350    2.3600 c3        1 MOL     -0.465513
    147 H67        -6.2500   -1.2660   -0.0950 hn        1 MOL      0.378479
    148 H68        -8.4230   -1.8540    1.7920 h1        1 MOL     -0.107283
    149 H69        -6.3500   -3.0490    1.9640 hc        1 MOL      0.108430
    150 H70        -5.5260   -1.4950    2.2660 hc        1 MOL      0.108430
    151 H71        -6.8860   -2.1140    3.3640 hc        1 MOL      0.108430
    152 N14        -8.5580    0.4090    2.9000 n         1 MOL     -0.226297
    153 C49        -8.9370    1.7730    3.3300 c3        1 MOL     -0.258396
    154 C50        -9.6440    2.6960    2.2620 c         1 MOL      0.397081
    155 O20        -9.6480    3.9450    2.3490 o         1 MOL     -0.483590
    156 C51        -7.9050    2.5210    4.1380 c3        1 MOL      0.616700
    157 C52        -7.2170    1.7140    5.2760 c3        1 MOL     -0.515048
    158 C53        -6.2750    2.7000    6.0100 c         1 MOL      0.768820
    159 O21        -5.0260    2.5530    5.7930 o         1 MOL     -0.705048
    160 O22        -6.6960    3.7050    6.5960 o         1 MOL     -0.705048
    161 H72        -8.9470   -0.3950    3.3730 hn        1 MOL      0.263772
    162 H73        -9.6930    1.5890    4.1020 h1        1 MOL      0.082049
    163 H74        -8.2360    3.4990    4.4860 hc        1 MOL     -0.076041
    164 H75        -7.1100    2.8250    3.4550 hc        1 MOL     -0.076041
    165 H76        -6.7600    0.8040    4.8960 hc        1 MOL      0.039082
    166 H77        -8.0700    1.4070    5.8790 hc        1 MOL      0.039082
    167 N15       -10.1890    2.0550    1.2150 n         1 MOL     -0.120729
    168 C54       -10.8040    2.7080    0.0730 c3        1 MOL     -0.305128
    169 H78       -10.1420    3.4900   -0.2970 h1        1 MOL      0.121210
    170 H79       -10.9770    1.9760   -0.7150 h1        1 MOL      0.121210
    171 H80       -11.7540    3.1490    0.3740 h1        1 MOL      0.121210
    172 H81       -10.2960    1.0490    1.2840 hn        1 MOL      0.174797
    173 Ca1        -0.3310    0.3280    1.5260 Ca        1 MOL      1.761222
    174 O23         0.3760   -1.8050    3.1250 oh        1 MOL     -0.844183
    175 H82         0.8200   -1.7690    3.9800 ho        1 MOL      0.414297
    176 H83        -0.3190   -2.4500    3.2450 ho        1 MOL      0.414297
    177 O24        -0.7900    3.0140    1.4020 oh        1 MOL     -0.844183
    178 H84        -0.7710    3.7260    0.7630 ho        1 MOL      0.414297
    179 H85        -1.0190    3.4420    2.2280 ho        1 MOL      0.414297
    180 O25        -1.2450    1.5050    3.8610 oh        1 MOL     -0.844183
    181 H86        -1.1170    2.3830    4.2070 ho        1 MOL      0.414297
    182 H87        -2.1850    1.3440    3.9640 ho        1 MOL      0.414297
    183 O26         1.6250    1.0360    3.3710 oh        1 MOL     -0.844183
    184 H88         1.7070    1.7290    4.0170 ho        1 MOL      0.414297
    185 H89         2.0060    0.2640    3.7970 ho        1 MOL      0.414297
    186 O27        -2.9870    0.3780    1.9560 oh        1 MOL     -0.844183
    187 H90        -3.3320    1.1520    1.5050 ho        1 MOL      0.414297
    188 H91        -3.3940    0.3990    2.8110 ho        1 MOL      0.414297
@<TRIPOS>BOND
     1    1    2 1   
     2    1    4 1   
     3    1    5 1   
     4    1    6 1   
     5    2    3 2   
     6    2    7 1   
     7    7    8 1   
     8    7   15 1   
     9    8    9 1   
    10    8   11 1   
    11    8   16 1   
    12    9   10 2   
    13    9   19 1   
    14   11   12 1   
    15   11   17 1   
    16   11   18 1   
    17   12   13 1   
    18   12   14 1   
    19   19   20 1   
    20   19   28 1   
    21   20   21 1   
    22   20   23 1   
    23   20   29 1   
    24   21   22 2   
    25   21   41 1   
    26   23   24 1   
    27   23   30 1   
    28   23   31 1   
    29   24   25 1   
    30   24   32 1   
    31   24   33 1   
    32   25   26 1   
    33   25   34 1   
    34   25   35 1   
    35   26   27 1   
    36   26   36 1   
    37   26   37 1   
    38   27   38 1   
    39   27   39 1   
    40   27   40 1   
    41   41   42 1   
    42   41   49 1   
    43   42   43 1   
    44   42   45 1   
    45   42   50 1   
    46   43   44 2   
    47   43   53 1   
    48   45   46 1   
    49   45   51 1   
    50   45   52 1   
    51   46   47 1   
    52   46   48 1   
    53   53   54 1   
    54   53   57 1   
    55   54   55 1   
    56   54   58 1   
    57   54   59 1   
    58   55   56 2   
    59   55   60 1   
    60   60   61 1   
    61   60   68 1   
    62   61   62 1   
    63   61   64 1   
    64   61   69 1   
    65   62   63 2   
    66   62   74 1   
    67   64   65 1   
    68   64   70 1   
    69   64   71 1   
    70   65   66 1   
    71   65   67 2   
    72   66   72 1   
    73   66   73 1   
    74   74   75 1   
    75   74   78 1   
    76   75   76 1   
    77   75   79 1   
    78   75   80 1   
    79   76   77 2   
    80   76   81 1   
    81   81   82 1   
    82   81   93 1   
    83   82   83 1   
    84   82   85 1   
    85   82   94 1   
    86   83   84 2   
    87   83  102 1   
    88   85   86 1   
    89   85   95 1   
    90   85   96 1   
    91   86   87 ar  
    92   86   88 ar  
    93   87   89 ar  
    94   87   97 1   
    95   88   90 ar  
    96   88   98 1   
    97   89   91 ar  
    98   89   99 1   
    99   90   91 ar  
   100   90  100 1   
   101   91   92 1   
   102   92  101 1   
   103  102  103 1   
   104  102  110 1   
   105  103  104 1   
   106  103  106 1   
   107  103  111 1   
   108  104  105 2   
   109  104  121 1   
   110  106  107 1   
   111  106  108 1   
   112  106  112 1   
   113  107  109 1   
   114  107  113 1   
   115  107  114 1   
   116  108  115 1   
   117  108  116 1   
   118  108  117 1   
   119  109  118 1   
   120  109  119 1   
   121  109  120 1   
   122  121  122 1   
   123  121  127 1   
   124  122  123 1   
   125  122  125 1   
   126  122  128 1   
   127  123  124 2   
   128  123  132 1   
   129  125  126 1   
   130  125  129 1   
   131  125  130 1   
   132  126  131 1   
   133  132  133 1   
   134  132  137 1   
   135  133  134 1   
   136  133  136 1   
   137  133  138 1   
   138  134  135 2   
   139  134  142 1   
   140  136  139 1   
   141  136  140 1   
   142  136  141 1   
   143  142  143 1   
   144  142  147 1   
   145  143  144 1   
   146  143  146 1   
   147  143  148 1   
   148  144  145 2   
   149  144  152 1   
   150  146  149 1   
   151  146  150 1   
   152  146  151 1   
   153  152  153 1   
   154  152  161 1   
   155  153  154 1   
   156  153  156 1   
   157  153  162 1   
   158  154  155 2   
   159  154  167 1   
   160  156  157 1   
   161  156  163 1   
   162  156  164 1   
   163  157  158 1   
   164  157  165 1   
   165  157  166 1   
   166  158  159 1   
   167  158  160 1   
   168  167  168 1   
   169  167  172 1   
   170  168  169 1   
   171  168  170 1   
   172  168  171 1   
   173  174  175 1   
   174  174  176 1   
   175  177  178 1   
   176  177  179 1   
   177  180  181 1   
   178  180  182 1   
   179  183  184 1   
   180  183  185 1   
   181  186  187 1   
   182  186  188 1   
@<TRIPOS>SUBSTRUCTURE
     1 MOL         1 TEMP              0 ****  ****    0 ROOT
