@<TRIPOS>MOLECULE
MOL
  182   178     1     0     0
SMALL
resp


@<TRIPOS>ATOM
      1 C1          0.7190   -4.3270    5.8440 c3        1 MOL     -0.379187
      2 C2          0.9510   -4.0050    4.3440 c         1 MOL      0.830967
      3 O1          0.0340   -4.1110    3.5530 o         1 MOL     -0.676277
      4 H1          0.6520   -3.3970    6.4080 hc        1 MOL      0.106397
      5 H2         -0.2080   -4.8880    5.9560 hc        1 MOL      0.106397
      6 H3          1.5510   -4.9210    6.2210 hc        1 MOL      0.106397
      7 N1          2.1120   -3.6270    3.9050 n         1 MOL     -0.605891
      8 C3          2.4940   -3.2450    2.5740 c3        1 MOL      0.045646
      9 C4          2.9250   -4.4410    1.7230 c         1 MOL      0.689834
     10 O2          3.7270   -5.3220    2.1530 o         1 MOL     -0.558772
     11 C5          3.4670   -2.0980    2.7540 c3        1 MOL     -0.060960
     12 C6          3.6600   -1.2000    1.6210 c         1 MOL      0.597969
     13 O3          3.8160    0.0380    1.7650 o         1 MOL     -0.686543
     14 O4          3.5850   -1.6920    0.4670 o         1 MOL     -0.686543
     15 H4          2.8320   -3.6500    4.6070 hn        1 MOL      0.312170
     16 H5          1.6310   -2.7620    2.1160 h1        1 MOL     -0.232501
     17 H6          4.4160   -2.5350    3.0700 hc        1 MOL      0.058401
     18 H7          3.0960   -1.4680    3.5600 hc        1 MOL      0.058401
     19 N2          2.3450   -4.5360    0.4870 n         1 MOL     -0.535971
     20 C7          2.7830   -5.5840   -0.4680 c3        1 MOL     -0.013165
     21 C8          4.0840   -5.1310   -1.2020 c         1 MOL      0.515344
     22 O5          4.8500   -6.0110   -1.5720 o         1 MOL     -0.564336
     23 C9          1.6330   -5.9280   -1.4520 c3        1 MOL      0.056934
     24 C10         0.3470   -6.2480   -0.6540 c3        1 MOL      0.048039
     25 C11        -0.7090   -6.7340   -1.6180 c3        1 MOL      0.108502
     26 C12        -1.9880   -6.9520   -0.9060 c3        1 MOL      0.078168
     27 N3         -2.9760   -7.8180   -1.5230 n4        1 MOL     -0.366034
     28 H8          1.7720   -3.7740    0.1510 hn        1 MOL      0.494511
     29 H9          3.0160   -6.5300    0.0110 h1        1 MOL      0.101748
     30 H10         1.9630   -6.7350   -2.1030 hc        1 MOL     -0.014414
     31 H11         1.4420   -5.0870   -2.1140 hc        1 MOL     -0.014414
     32 H12         0.0090   -5.3160   -0.2040 hc        1 MOL     -0.015556
     33 H13         0.5540   -7.0330    0.0710 hc        1 MOL     -0.015556
     34 H14        -0.4330   -7.6250   -2.1720 hc        1 MOL     -0.016645
     35 H15        -0.7760   -5.9270   -2.3430 hc        1 MOL     -0.016645
     36 H16        -2.3770   -5.9310   -0.8650 hx        1 MOL      0.052125
     37 H17        -1.8170   -7.2820    0.1230 hx        1 MOL      0.052125
     38 H18        -3.2880   -7.4750   -2.4130 hn        1 MOL      0.303963
     39 H19        -2.6330   -8.7710   -1.5620 hn        1 MOL      0.303963
     40 H20        -3.8430   -7.8600   -1.0080 hn        1 MOL      0.303963
     41 N4          4.3460   -3.8500   -1.4750 n         1 MOL     -0.064822
     42 C13         5.5250   -3.4030   -2.2610 c3        1 MOL     -0.120362
     43 C14         6.6680   -2.7490   -1.4770 c         1 MOL      0.369008
     44 O6          7.8040   -2.6320   -1.8840 o         1 MOL     -0.476009
     45 C15         4.9710   -2.5010   -3.3760 c3        1 MOL     -0.196424
     46 C16         4.0660   -1.3890   -2.8450 c         1 MOL      0.692483
     47 O7          4.5720   -0.2910   -2.5100 o         1 MOL     -0.689347
     48 O8          2.8220   -1.3610   -2.8590 o         1 MOL     -0.689347
     49 H21         3.8880   -3.0590   -1.0470 hn        1 MOL     -0.123177
     50 H22         5.8530   -4.3170   -2.7610 h1        1 MOL      0.146757
     51 H23         4.4250   -3.1060   -4.1090 hc        1 MOL      0.080678
     52 H24         5.8140   -2.0960   -3.9350 hc        1 MOL      0.080678
     53 N5          6.3980   -2.3970   -0.2400 n         1 MOL     -0.076495
     54 C17         7.3110   -1.5790    0.6270 c3        1 MOL     -0.223454
     55 C18         7.3360   -0.0360    0.4320 c         1 MOL      0.795725
     56 O9          7.9080    0.7330    1.2150 o         1 MOL     -0.616656
     57 H25         5.5040   -2.6290    0.1820 hn        1 MOL      0.171166
     58 H26         8.3280   -1.9400    0.5190 h1        1 MOL      0.089769
     59 H27         7.0880   -1.6550    1.6880 h1        1 MOL      0.089769
     60 N6          6.6260    0.5140   -0.5920 n         1 MOL     -0.525708
     61 C19         6.8950    1.9120   -1.0440 c3        1 MOL      0.186606
     62 C20         5.5450    2.6740   -1.2340 c         1 MOL      0.734979
     63 O10         4.4760    2.1230   -1.1450 o         1 MOL     -0.585808
     64 C21         7.6810    2.0540   -2.3380 c3        1 MOL     -0.396747
     65 C22         9.0930    1.4900   -2.2810 c         1 MOL      0.704232
     66 N7          9.9110    1.9550   -1.4200 n         1 MOL     -0.815703
     67 O11         9.4130    0.5050   -2.8810 o         1 MOL     -0.556048
     68 H28         6.2370   -0.1510   -1.2400 hn        1 MOL      0.302695
     69 H29         7.3820    2.5190   -0.2690 h1        1 MOL      0.017550
     70 H30         7.8910    3.0650   -2.6800 hc        1 MOL      0.096052
     71 H31         7.1180    1.6310   -3.1730 hc        1 MOL      0.096052
     72 H32         9.7080    2.8380   -0.9740 hn        1 MOL      0.376836
     73 H33        10.7570    1.4240   -1.2450 hn        1 MOL      0.376836
     74 N8          5.6060    3.9580   -1.3760 n         1 MOL     -0.592266
     75 C23         4.3990    4.8850   -1.4270 c3        1 MOL      0.075675
     76 C24         3.7340    4.9200   -0.0830 c         1 MOL      0.418558
     77 O12         4.3090    4.8680    1.0600 o         1 MOL     -0.459971
     78 H34         6.5010    4.4440   -1.3760 hn        1 MOL      0.308783
     79 H35         3.7220    4.3810   -2.1230 h1        1 MOL      0.062321
     80 H36         4.6140    5.8400   -1.9010 h1        1 MOL      0.062321
     81 N9          2.4180    5.1310   -0.1790 n         1 MOL     -0.406006
     82 C25         1.4490    4.8780    0.8530 c3        1 MOL      0.024747
     83 C26         1.3550    3.3990    1.2530 c         1 MOL      0.564063
     84 O13         1.8940    2.4790    0.5780 o         1 MOL     -0.514404
     85 C27         0.0550    5.3060    0.3680 c3        1 MOL     -0.285120
     86 C28        -0.1060    6.8050    0.1790 ca        1 MOL      0.168305
     87 C29        -0.4680    7.6090    1.2730 ca        1 MOL     -0.177877
     88 C30         0.0090    7.3050   -1.1320 ca        1 MOL     -0.177877
     89 C31        -0.7240    8.9450    1.0560 ca        1 MOL     -0.288802
     90 C32        -0.1000    8.7090   -1.2920 ca        1 MOL     -0.288802
     91 C33        -0.4440    9.5000   -0.2060 ca        1 MOL      0.396219
     92 O14        -0.7300   10.8320   -0.2960 oh        1 MOL     -0.500757
     93 H37         2.1300    5.3890   -1.1160 hn        1 MOL      0.244441
     94 H38         1.7150    5.4880    1.7190 h1        1 MOL      0.096979
     95 H39        -0.7020    5.0840    1.1110 hc        1 MOL      0.089531
     96 H40        -0.1000    4.8240   -0.6020 hc        1 MOL      0.089531
     97 H41        -0.5800    7.2740    2.2980 ha        1 MOL      0.143317
     98 H42         0.2510    6.6440   -1.9560 ha        1 MOL      0.143317
     99 H43        -0.9550    9.5600    1.9200 ha        1 MOL      0.168805
    100 H44         0.0150    9.1650   -2.2680 ha        1 MOL      0.168805
    101 H45        -1.2850   11.0390    0.4590 ho        1 MOL      0.361200
    102 N10         0.6500    3.1190    2.3700 n         1 MOL     -0.515904
    103 C34         0.1040    1.7540    2.7480 c3        1 MOL      0.284775
    104 C35        -0.2990    0.8330    1.6150 c         1 MOL      0.076506
    105 O15         0.5360    0.3870    0.8850 o         1 MOL     -0.109356
    106 C36         1.0270    0.9890    3.7990 c3        1 MOL      0.048489
    107 C37         0.5030   -0.4070    4.2940 c3        1 MOL     -0.082944
    108 C38         1.1660    1.8570    5.0970 c3        1 MOL     -0.257583
    109 C39        -0.9380   -0.5970    4.8600 c3        1 MOL     -0.350735
    110 H46         0.1930    3.8820    2.8420 hn        1 MOL      0.299525
    111 H47        -0.8140    1.9930    3.2910 h1        1 MOL      0.010366
    112 H48         1.9600    0.9390    3.2320 hc        1 MOL      0.091323
    113 H49         1.2440   -0.6780    5.0370 hc        1 MOL      0.087173
    114 H50         0.6230   -1.2180    3.5720 hc        1 MOL      0.087173
    115 H51         0.2130    2.2290    5.4510 hc        1 MOL      0.062213
    116 H52         1.7780    1.3670    5.8510 hc        1 MOL      0.062213
    117 H53         1.6440    2.7860    4.7630 hc        1 MOL      0.062213
    118 H54        -1.0810    0.0740    5.7180 hc        1 MOL      0.096943
    119 H55        -1.6710   -0.5030    4.0660 hc        1 MOL      0.096943
    120 H56        -0.9870   -1.5580    5.3500 hc        1 MOL      0.096943
    121 N11        -1.5860    0.4370    1.5160 n         1 MOL     -0.397533
    122 C40        -2.0810   -0.6740    0.6390 c3        1 MOL      0.133100
    123 C41        -3.5110   -0.5530    0.1510 c         1 MOL      0.561845
    124 O16        -3.8050   -1.0680   -0.9230 o         1 MOL     -0.505062
    125 C42        -2.0000   -1.9410    1.4680 c3        1 MOL     -0.065785
    126 O17        -0.6570   -2.4240    1.4940 oh        1 MOL     -0.509120
    127 H57        -2.3070    0.8560    2.0850 hn        1 MOL      0.244677
    128 H58        -1.4810   -0.8190   -0.2690 h1        1 MOL     -0.017211
    129 H59        -2.6420   -2.6870    0.9940 h1        1 MOL      0.073954
    130 H60        -2.5010   -1.6990    2.3960 h1        1 MOL      0.073954
    131 H61        -0.5760   -3.0510    2.2100 ho        1 MOL      0.437621
    132 N12        -4.3440    0.1140    0.9670 n         1 MOL     -0.608616
    133 C43        -5.6790    0.4300    0.5270 c3        1 MOL      0.144039
    134 C44        -5.7880    1.2740   -0.7840 c         1 MOL      0.642513
    135 O18        -4.9700    2.1790   -1.0030 o         1 MOL     -0.581385
    136 C45        -6.3970    1.1040    1.6690 c3        1 MOL     -0.273141
    137 H62        -4.0310    0.5960    1.8000 hn        1 MOL      0.351930
    138 H63        -6.1750   -0.5110    0.3120 h1        1 MOL      0.112366
    139 H64        -6.0500    2.1300    1.7660 hc        1 MOL      0.085379
    140 H65        -7.4660    1.2030    1.4870 hc        1 MOL      0.085379
    141 H66        -6.1820    0.5140    2.5650 hc        1 MOL      0.085379
    142 N13        -6.7570    0.9950   -1.7260 n         1 MOL     -0.632639
    143 C46        -7.7260   -0.0800   -1.6420 c3        1 MOL      0.130171
    144 C47        -8.9200    0.3170   -2.5090 c         1 MOL      0.499301
    145 O19        -8.7960    0.5890   -3.7190 o         1 MOL     -0.523151
    146 C48        -7.1590   -1.3870   -2.2760 c3        1 MOL      0.015035
    147 H67        -6.7490    1.5110   -2.5880 hn        1 MOL      0.356649
    148 H68        -7.9420   -0.3130   -0.6060 h1        1 MOL      0.023340
    149 H69        -7.8180   -2.2500   -2.2420 hc        1 MOL      0.008952
    150 H70        -6.8200   -1.1650   -3.2850 hc        1 MOL      0.008952
    151 H71        -6.2730   -1.7590   -1.7680 hc        1 MOL      0.008952
    152 N14       -10.1320    0.4590   -1.9310 n         1 MOL     -0.490053
    153 C49       -10.3660   -0.0660   -0.5470 c3        1 MOL     -0.287477
    154 C50       -10.1200    0.8640    0.6540 c         1 MOL      0.422997
    155 O20        -9.8410    0.3630    1.7430 o         1 MOL     -0.533945
    156 C51       -11.8760   -0.5450   -0.3770 c3        1 MOL      0.178845
    157 C52       -12.2980   -1.4810   -1.4570 c3        1 MOL     -0.059304
    158 C53       -11.3810   -2.6990   -1.5770 c         1 MOL      0.675463
    159 O21       -11.3990   -3.5790   -0.7210 o         1 MOL     -0.668769
    160 O22       -10.5090   -2.6870   -2.4740 o         1 MOL     -0.668769
    161 H72       -10.9180    0.6680   -2.5220 hn        1 MOL      0.358292
    162 H73        -9.8260   -1.0040   -0.4400 h1        1 MOL      0.205949
    163 H74       -12.5180    0.3370   -0.3340 hc        1 MOL     -0.005514
    164 H75       -12.0260   -1.0930    0.5550 hc        1 MOL     -0.005514
    165 H76       -12.4380   -1.0360   -2.4400 hc        1 MOL     -0.032446
    166 H77       -13.2750   -1.8120   -1.1120 hc        1 MOL     -0.032446
    167 N15       -10.0830    2.1470    0.4290 n         1 MOL     -0.152148
    168 C54        -9.7060    3.1750    1.3500 c3        1 MOL     -0.215155
    169 H78        -9.2040    2.7280    2.2070 h1        1 MOL      0.095526
    170 H79        -9.0300    3.8750    0.8570 h1        1 MOL      0.095526
    171 H80       -10.5960    3.7060    1.6870 h1        1 MOL      0.095526
    172 H81       -10.2580    2.4410   -0.5190 hn        1 MOL      0.214524
    173 Ca1         2.4290    0.2930   -0.9000 Ca        1 MOL      1.676329
    174 O23         2.1710    1.9260   -2.9470 oh        1 MOL     -0.852748
    175 H82         2.9080    2.1370   -3.5190 ho        1 MOL      0.425888
    176 H83         1.4530    2.4680   -3.2780 ho        1 MOL      0.425888
    177 O24         1.0430   -2.0840   -0.7470 oh        1 MOL     -0.852748
    178 H84         0.4550   -2.1890   -1.4970 ho        1 MOL      0.425888
    179 H85         0.4990   -2.2880    0.0070 ho        1 MOL      0.425888
    180 O25        -0.0460    0.4210   -2.0050 oh        1 MOL     -0.852748
    181 H86        -0.5240   -0.1880   -2.5630 ho        1 MOL      0.425888
    182 H87        -0.6450    1.1440   -1.8520 ho        1 MOL      0.425888
@<TRIPOS>BOND
     1    1    2 1   
     2    1    4 1   
     3    1    5 1   
     4    1    6 1   
     5    2    3 2   
     6    2    7 1   
     7    7    8 1   
     8    7   15 1   
     9    8    9 1   
    10    8   11 1   
    11    8   16 1   
    12    9   10 2   
    13    9   19 1   
    14   11   12 1   
    15   11   17 1   
    16   11   18 1   
    17   12   13 1   
    18   12   14 1   
    19   19   20 1   
    20   19   28 1   
    21   20   21 1   
    22   20   23 1   
    23   20   29 1   
    24   21   22 2   
    25   21   41 1   
    26   23   24 1   
    27   23   30 1   
    28   23   31 1   
    29   24   25 1   
    30   24   32 1   
    31   24   33 1   
    32   25   26 1   
    33   25   34 1   
    34   25   35 1   
    35   26   27 1   
    36   26   36 1   
    37   26   37 1   
    38   27   38 1   
    39   27   39 1   
    40   27   40 1   
    41   41   42 1   
    42   41   49 1   
    43   42   43 1   
    44   42   45 1   
    45   42   50 1   
    46   43   44 2   
    47   43   53 1   
    48   45   46 1   
    49   45   51 1   
    50   45   52 1   
    51   46   47 1   
    52   46   48 1   
    53   53   54 1   
    54   53   57 1   
    55   54   55 1   
    56   54   58 1   
    57   54   59 1   
    58   55   56 2   
    59   55   60 1   
    60   60   61 1   
    61   60   68 1   
    62   61   62 1   
    63   61   64 1   
    64   61   69 1   
    65   62   63 2   
    66   62   74 1   
    67   64   65 1   
    68   64   70 1   
    69   64   71 1   
    70   65   66 1   
    71   65   67 2   
    72   66   72 1   
    73   66   73 1   
    74   74   75 1   
    75   74   78 1   
    76   75   76 1   
    77   75   79 1   
    78   75   80 1   
    79   76   77 2   
    80   76   81 1   
    81   81   82 1   
    82   81   93 1   
    83   82   83 1   
    84   82   85 1   
    85   82   94 1   
    86   83   84 2   
    87   83  102 1   
    88   85   86 1   
    89   85   95 1   
    90   85   96 1   
    91   86   87 ar  
    92   86   88 ar  
    93   87   89 ar  
    94   87   97 1   
    95   88   90 ar  
    96   88   98 1   
    97   89   91 ar  
    98   89   99 1   
    99   90   91 ar  
   100   90  100 1   
   101   91   92 1   
   102   92  101 1   
   103  102  103 1   
   104  102  110 1   
   105  103  104 1   
   106  103  106 1   
   107  103  111 1   
   108  104  105 2   
   109  104  121 1   
   110  106  107 1   
   111  106  108 1   
   112  106  112 1   
   113  107  109 1   
   114  107  113 1   
   115  107  114 1   
   116  108  115 1   
   117  108  116 1   
   118  108  117 1   
   119  109  118 1   
   120  109  119 1   
   121  109  120 1   
   122  121  122 1   
   123  121  127 1   
   124  122  123 1   
   125  122  125 1   
   126  122  128 1   
   127  123  124 2   
   128  123  132 1   
   129  125  126 1   
   130  125  129 1   
   131  125  130 1   
   132  126  131 1   
   133  132  133 1   
   134  132  137 1   
   135  133  134 1   
   136  133  136 1   
   137  133  138 1   
   138  134  135 2   
   139  134  142 1   
   140  136  139 1   
   141  136  140 1   
   142  136  141 1   
   143  142  143 1   
   144  142  147 1   
   145  143  144 1   
   146  143  146 1   
   147  143  148 1   
   148  144  145 2   
   149  144  152 1   
   150  146  149 1   
   151  146  150 1   
   152  146  151 1   
   153  152  153 1   
   154  152  161 1   
   155  153  154 1   
   156  153  156 1   
   157  153  162 1   
   158  154  155 2   
   159  154  167 1   
   160  156  157 1   
   161  156  163 1   
   162  156  164 1   
   163  157  158 1   
   164  157  165 1   
   165  157  166 1   
   166  158  159 1   
   167  158  160 1   
   168  167  168 1   
   169  167  172 1   
   170  168  169 1   
   171  168  170 1   
   172  168  171 1   
   173  174  175 1   
   174  174  176 1   
   175  177  178 1   
   176  177  179 1   
   177  180  181 1   
   178  180  182 1   
@<TRIPOS>SUBSTRUCTURE
     1 MOL         1 TEMP              0 ****  ****    0 ROOT
