@<TRIPOS>MOLECULE
MOL
  194   186     1     0     0
SMALL
resp


@<TRIPOS>ATOM
      1 C1         -0.1260    2.2770    3.8030 c3        1 MOL     -0.439159
      2 C2          1.2330    2.0980    3.0930 c         1 MOL      0.639496
      3 O1          1.4150    2.3160    1.8900 o         1 MOL     -0.587855
      4 H1         -0.2150    1.5450    4.6060 hc        1 MOL      0.124104
      5 H2         -0.1880    3.2830    4.2210 hc        1 MOL      0.124104
      6 H3         -0.9340    2.1300    3.0860 hc        1 MOL      0.124104
      7 N1          2.2920    1.8350    3.8360 n         1 MOL     -0.456019
      8 C3          3.5930    1.5520    3.3390 c3        1 MOL      0.022065
      9 C4          3.5780    0.2230    2.5150 c         1 MOL      0.474671
     10 O2          4.0350    0.1640    1.3620 o         1 MOL     -0.516199
     11 C5          4.7620    1.7630    4.3410 c3        1 MOL     -0.002556
     12 C6          4.6980    0.8190    5.5730 c         1 MOL      0.637948
     13 O3          5.6510    0.8310    6.4180 o         1 MOL     -0.642631
     14 O4          3.6150    0.2450    5.7580 o         1 MOL     -0.642631
     15 H4          2.1350    1.6850    4.8220 hn        1 MOL      0.264324
     16 H5          3.8940    2.2910    2.5960 h1        1 MOL      0.121059
     17 H6          4.7710    2.8200    4.6200 hc        1 MOL      0.003172
     18 H7          5.7680    1.5890    3.9420 hc        1 MOL      0.003172
     19 N2          3.0090   -0.8380    3.0700 n         1 MOL     -0.308094
     20 C7          2.7750   -2.1800    2.5730 c3        1 MOL     -0.171312
     21 C8          4.1990   -2.8730    2.6790 c         1 MOL      0.509345
     22 O5          4.8320   -2.7090    3.6690 o         1 MOL     -0.486250
     23 C9          1.8220   -3.0500    3.4040 c3        1 MOL     -0.079982
     24 C10         0.3170   -2.8260    3.0290 c3        1 MOL     -0.171387
     25 C11        -0.5540   -3.8690    3.8140 c3        1 MOL     -0.037357
     26 C12        -2.0280   -3.5910    3.5690 c3        1 MOL      0.240410
     27 N3         -2.9410   -4.5410    4.2860 n4        1 MOL     -0.542764
     28 H8          2.7180   -0.6000    4.0100 hn        1 MOL      0.237860
     29 H9          2.5050   -2.1820    1.5190 h1        1 MOL      0.106368
     30 H10         1.8860   -2.7530    4.4530 hc        1 MOL      0.090582
     31 H11         2.2340   -4.0470    3.3250 hc        1 MOL      0.090582
     32 H12         0.1710   -2.9180    1.9530 hc        1 MOL      0.084068
     33 H13         0.1050   -1.8170    3.4010 hc        1 MOL      0.084068
     34 H14        -0.3090   -3.7500    4.8710 hc        1 MOL      0.024171
     35 H15        -0.2690   -4.8890    3.5430 hc        1 MOL      0.024171
     36 H16        -2.2660   -3.7170    2.5080 hx        1 MOL      0.029183
     37 H17        -2.2640   -2.5550    3.8240 hx        1 MOL      0.029183
     38 H18        -3.8780   -4.1530    4.3710 hn        1 MOL      0.357869
     39 H19        -2.9920   -5.3560    3.7070 hn        1 MOL      0.357869
     40 H20        -2.5630   -4.6350    5.2170 hn        1 MOL      0.357869
     41 N4          4.7120   -3.4360    1.6120 n         1 MOL     -0.422650
     42 C13         6.1280   -3.8480    1.3680 c3        1 MOL      0.166930
     43 C14         7.0490   -2.6160    1.0510 c         1 MOL      0.570525
     44 O6          8.2500   -2.7190    1.3340 o         1 MOL     -0.556132
     45 C15         6.2100   -4.9840    0.3160 c3        1 MOL     -0.479746
     46 C16         5.6760   -4.6460   -1.0210 c         1 MOL      0.782791
     47 O7          5.2490   -3.5010   -1.2260 o         1 MOL     -0.727507
     48 O8          5.8130   -5.4760   -1.9350 o         1 MOL     -0.727507
     49 H21         4.0630   -3.4620    0.8440 hn        1 MOL      0.233190
     50 H22         6.6500   -4.2110    2.2560 h1        1 MOL      0.068453
     51 H23         5.6510   -5.8380    0.7200 hc        1 MOL      0.135926
     52 H24         7.2560   -5.2650    0.1830 hc        1 MOL      0.135926
     53 N5          6.4860   -1.5410    0.5300 n         1 MOL     -0.257178
     54 C17         7.0860   -0.2300    0.2860 c3        1 MOL     -0.208265
     55 C18         7.4630    0.6260    1.5440 c         1 MOL      0.616797
     56 O9          8.1630    0.1590    2.4500 o         1 MOL     -0.498391
     57 H25         5.5920   -1.6050    0.0510 hn        1 MOL      0.251714
     58 H26         6.4030    0.3300   -0.3460 h1        1 MOL      0.060813
     59 H27         7.9620   -0.2920   -0.3640 h1        1 MOL      0.060813
     60 N6          7.2400    1.9380    1.6540 n         1 MOL     -0.539843
     61 C19         6.5170    2.8030    0.7040 c3        1 MOL      0.429371
     62 C20         5.6870    3.9070    1.3380 c         1 MOL      0.357063
     63 O10         6.1530    4.6210    2.2270 o         1 MOL     -0.519328
     64 C21         7.5790    3.4020   -0.2580 c3        1 MOL     -0.426701
     65 C22         6.9790    4.0250   -1.4870 c         1 MOL      0.671484
     66 N7          6.9310    5.2860   -1.5770 n         1 MOL     -0.711095
     67 O11         6.5270    3.3200   -2.3900 o         1 MOL     -0.616817
     68 H28         7.6780    2.3770    2.4550 hn        1 MOL      0.304731
     69 H29         5.8130    2.2330    0.0920 h1        1 MOL      0.027469
     70 H30         8.1860    2.6010   -0.6790 hc        1 MOL      0.106347
     71 H31         8.2120    4.0500    0.3380 hc        1 MOL      0.106347
     72 H32         7.4970    5.8000   -0.9200 hn        1 MOL      0.357607
     73 H33         6.6220    5.7130   -2.4390 hn        1 MOL      0.357607
     74 N8          4.4680    4.3100    0.8640 n         1 MOL     -0.361811
     75 C23         3.5400    3.6650   -0.0600 c3        1 MOL     -0.170699
     76 C24         2.2670    4.4560   -0.2560 c         1 MOL      0.779196
     77 O12         2.3850    5.6680   -0.3320 o         1 MOL     -0.576606
     78 H34         4.2150    5.1570    1.3340 hn        1 MOL      0.288803
     79 H35         3.2820    2.6710    0.3030 h1        1 MOL      0.066006
     80 H36         4.0100    3.5510   -1.0270 h1        1 MOL      0.066006
     81 N9          1.1030    3.7730   -0.4840 n         1 MOL     -0.657897
     82 C25        -0.2500    4.3370   -0.7530 c3        1 MOL      0.226840
     83 C26        -1.4050    3.3060   -0.5510 c         1 MOL      0.586559
     84 O13        -1.1760    2.0750   -0.6730 o         1 MOL     -0.554713
     85 C27        -0.3560    4.9860   -2.1130 c3        1 MOL     -0.303731
     86 C28        -1.5360    6.0200   -2.2620 ca        1 MOL      0.036322
     87 C29        -2.5070    5.8240   -3.2660 ca        1 MOL     -0.098073
     88 C30        -1.5730    7.1860   -1.5110 ca        1 MOL     -0.098073
     89 C31        -3.5770    6.7390   -3.3920 ca        1 MOL     -0.341573
     90 C32        -2.6140    8.1080   -1.6220 ca        1 MOL     -0.341573
     91 C33        -3.6540    7.8450   -2.5430 ca        1 MOL      0.438588
     92 O14        -4.6320    8.8220   -2.6010 oh        1 MOL     -0.544649
     93 H37         1.1160    2.8390   -0.1140 hn        1 MOL      0.320516
     94 H38        -0.3340    5.1610   -0.0460 h1        1 MOL      0.020577
     95 H39        -0.4090    4.2060   -2.8800 hc        1 MOL      0.118785
     96 H40         0.5620    5.5490   -2.2450 hc        1 MOL      0.118785
     97 H41        -2.4380    4.9980   -3.9480 ha        1 MOL      0.130682
     98 H42        -0.7890    7.3970   -0.7900 ha        1 MOL      0.130682
     99 H43        -4.2950    6.5080   -4.1710 ha        1 MOL      0.165866
    100 H44        -2.5940    8.9000   -0.8840 ha        1 MOL      0.165866
    101 H45        -4.5100    9.5600   -2.0060 ho        1 MOL      0.382569
    102 N10        -2.6450    3.7090   -0.2610 n         1 MOL     -0.487995
    103 C34        -3.7520    2.8000   -0.1130 c3        1 MOL     -0.023541
    104 C35        -4.3160    2.1000   -1.3560 c         1 MOL      0.749273
    105 O15        -4.3530    2.6690   -2.4660 o         1 MOL     -0.587105
    106 C36        -4.8770    3.5310    0.6750 c3        1 MOL      0.155379
    107 C37        -5.8250    4.5180    0.0360 c3        1 MOL      0.104575
    108 C38        -5.7010    2.5100    1.4310 c3        1 MOL     -0.295972
    109 C39        -5.0640    5.5820   -0.6440 c3        1 MOL     -0.401904
    110 H46        -2.8360    4.6570    0.0340 hn        1 MOL      0.247733
    111 H47        -3.3810    2.0700    0.6110 h1        1 MOL      0.082894
    112 H48        -4.3420    4.1520    1.3930 hc        1 MOL      0.015532
    113 H49        -6.4600    4.9980    0.7800 hc        1 MOL      0.002380
    114 H50        -6.5640    4.0460   -0.6130 hc        1 MOL      0.002380
    115 H51        -6.3640    1.9520    0.7710 hc        1 MOL      0.061113
    116 H52        -5.1410    1.8450    2.0830 hc        1 MOL      0.061113
    117 H53        -6.3150    3.0500    2.1440 hc        1 MOL      0.061113
    118 H54        -4.6060    5.1380   -1.5300 hc        1 MOL      0.109007
    119 H55        -5.7180    6.3480   -1.0540 hc        1 MOL      0.109007
    120 H56        -4.2950    5.9330    0.0400 hc        1 MOL      0.109007
    121 N11        -4.7020    0.8540   -1.2440 n         1 MOL     -0.584583
    122 C40        -5.1500    0.0670   -2.3490 c3        1 MOL      0.256135
    123 C41        -4.9850   -1.4360   -2.0810 c         1 MOL      0.527370
    124 O16        -4.5910   -1.7950   -0.9660 o         1 MOL     -0.454127
    125 C42        -6.5770    0.4370   -2.7570 c3        1 MOL     -0.158000
    126 O17        -7.5730    0.0860   -1.7800 oh        1 MOL     -0.338892
    127 H57        -4.8210    0.4830   -0.3090 hn        1 MOL      0.231085
    128 H58        -4.5360    0.1880   -3.2420 h1        1 MOL      0.029444
    129 H59        -6.8200   -0.0440   -3.7100 h1        1 MOL      0.079259
    130 H60        -6.5440    1.5200   -2.8380 h1        1 MOL      0.079259
    131 H61        -8.4100   -0.0420   -2.2340 ho        1 MOL      0.367984
    132 N12        -5.1960   -2.2210   -3.0990 n         1 MOL     -0.500804
    133 C43        -5.3550   -3.6920   -2.9760 c3        1 MOL      0.122032
    134 C44        -6.5150   -4.0980   -2.0520 c         1 MOL      0.599548
    135 O18        -6.2860   -4.5150   -0.9360 o         1 MOL     -0.459891
    136 C45        -4.0130   -4.3580   -2.6720 c3        1 MOL     -0.436390
    137 H62        -5.2680   -1.8410   -4.0290 hn        1 MOL      0.296892
    138 H63        -5.6450   -3.9990   -3.9760 h1        1 MOL      0.055501
    139 H64        -4.1190   -5.4270   -2.8470 hc        1 MOL      0.131809
    140 H65        -3.1710   -3.9930   -3.2490 hc        1 MOL      0.131809
    141 H66        -3.6950   -4.1240   -1.6610 hc        1 MOL      0.131809
    142 N13        -7.7470   -3.8010   -2.5400 n         1 MOL     -0.729621
    143 C46        -9.0140   -3.8360   -1.8460 c3        1 MOL      0.478073
    144 C47        -9.1140   -3.2770   -0.3630 c         1 MOL      0.195777
    145 O19        -9.9780   -3.7430    0.3600 o         1 MOL     -0.474364
    146 C48        -9.4310   -5.3110   -2.0520 c3        1 MOL     -0.298584
    147 H67        -7.7250   -3.1940   -3.3440 hn        1 MOL      0.303022
    148 H68        -9.7040   -3.1990   -2.4030 h1        1 MOL     -0.019910
    149 H69       -10.4090   -5.4690   -1.6020 hc        1 MOL      0.081346
    150 H70        -9.6200   -5.4980   -3.1090 hc        1 MOL      0.081346
    151 H71        -8.6640   -5.9830   -1.6880 hc        1 MOL      0.081346
    152 N14        -8.2340   -2.3810    0.0310 n         1 MOL      0.063385
    153 C49        -8.0190   -1.8460    1.3670 c3        1 MOL     -0.004316
    154 C50        -9.0580   -0.8080    1.6750 c         1 MOL      0.381299
    155 O20        -9.6850   -0.8460    2.7260 o         1 MOL     -0.493095
    156 C51        -6.5780   -1.4740    1.7300 c3        1 MOL      0.194794
    157 C52        -6.2800   -1.5060    3.2750 c3        1 MOL     -0.429179
    158 C53        -6.3230   -2.8850    3.8520 c         1 MOL      0.770962
    159 O21        -6.8500   -3.0330    4.9700 o         1 MOL     -0.715483
    160 O22        -5.7330   -3.8200    3.3500 o         1 MOL     -0.715483
    161 H72        -7.5880   -1.9580   -0.6290 hn        1 MOL     -0.090776
    162 H73        -8.3500   -2.6340    2.0300 h1        1 MOL      0.137288
    163 H74        -6.3870   -0.4760    1.3420 hc        1 MOL     -0.026086
    164 H75        -5.8700   -2.1950    1.3130 hc        1 MOL     -0.026086
    165 H76        -6.9830   -0.8250    3.7370 hc        1 MOL      0.095288
    166 H77        -5.2530   -1.1620    3.3720 hc        1 MOL      0.095288
    167 N15        -9.3380    0.0610    0.7170 n         1 MOL     -0.127866
    168 C54       -10.5870    0.9000    0.7750 c3        1 MOL     -0.269031
    169 H78       -10.9140    1.1360   -0.2390 h1        1 MOL      0.109265
    170 H79       -11.3740    0.3490    1.2890 h1        1 MOL      0.109265
    171 H80       -10.3800    1.8250    1.3130 h1        1 MOL      0.109265
    172 H81        -8.9580   -0.0120   -0.2170 hn        1 MOL      0.064757
    173 Ca1         5.6670   -3.3850   -3.7990 Ca        1 MOL      1.622081
    174 O23         4.2520   -2.6300   -6.0040 oh        1 MOL     -0.765020
    175 H82         4.0730   -1.6970   -6.1030 ho        1 MOL      0.388451
    176 H83         3.4310   -3.0530   -6.2800 ho        1 MOL      0.388451
    177 O24         7.3570   -2.7250   -5.8950 oh        1 MOL     -0.765020
    178 H84         8.3080   -2.6600   -5.8100 ho        1 MOL      0.388451
    179 H85         7.1360   -2.1050   -6.5910 ho        1 MOL      0.388451
    180 O25         7.0740   -0.9830   -3.1260 oh        1 MOL     -0.765020
    181 H86         7.9620   -1.0700   -2.7850 ho        1 MOL      0.388451
    182 H87         7.0940   -0.1930   -3.6510 ho        1 MOL      0.388451
    183 O26         3.7900   -1.5570   -3.2870 oh        1 MOL     -0.765020
    184 H88         3.6830   -0.9190   -3.9860 ho        1 MOL      0.388451
    185 H89         3.4020   -1.1420   -2.5120 ho        1 MOL      0.388451
    186 O27         5.5610   -5.4160   -5.4200 oh        1 MOL     -0.765020
    187 H90         6.3430   -5.3100   -5.9620 ho        1 MOL      0.388451
    188 H91         5.4970   -6.3630   -5.2720 ho        1 MOL      0.388451
    189 O28         3.1720   -4.6070   -3.7230 oh        1 MOL     -0.765020
    190 H92         3.0700   -5.5600   -3.6340 ho        1 MOL      0.388451
    191 H93         2.3490   -4.2410   -3.4240 ho        1 MOL      0.388451
    192 O29         8.2470   -3.9600   -3.2650 oh        1 MOL     -0.765020
    193 H94         8.8610   -3.8660   -2.5380 ho        1 MOL      0.388451
    194 H95         8.7890   -4.2290   -4.0160 ho        1 MOL      0.388451
@<TRIPOS>BOND
     1    1    2 1   
     2    1    4 1   
     3    1    5 1   
     4    1    6 1   
     5    2    3 2   
     6    2    7 1   
     7    7    8 1   
     8    7   15 1   
     9    8    9 1   
    10    8   11 1   
    11    8   16 1   
    12    9   10 2   
    13    9   19 1   
    14   11   12 1   
    15   11   17 1   
    16   11   18 1   
    17   12   13 1   
    18   12   14 1   
    19   19   20 1   
    20   19   28 1   
    21   20   21 1   
    22   20   23 1   
    23   20   29 1   
    24   21   22 2   
    25   21   41 1   
    26   23   24 1   
    27   23   30 1   
    28   23   31 1   
    29   24   25 1   
    30   24   32 1   
    31   24   33 1   
    32   25   26 1   
    33   25   34 1   
    34   25   35 1   
    35   26   27 1   
    36   26   36 1   
    37   26   37 1   
    38   27   38 1   
    39   27   39 1   
    40   27   40 1   
    41   41   42 1   
    42   41   49 1   
    43   42   43 1   
    44   42   45 1   
    45   42   50 1   
    46   43   44 2   
    47   43   53 1   
    48   45   46 1   
    49   45   51 1   
    50   45   52 1   
    51   46   47 1   
    52   46   48 1   
    53   53   54 1   
    54   53   57 1   
    55   54   55 1   
    56   54   58 1   
    57   54   59 1   
    58   55   56 2   
    59   55   60 1   
    60   60   61 1   
    61   60   68 1   
    62   61   62 1   
    63   61   64 1   
    64   61   69 1   
    65   62   63 2   
    66   62   74 1   
    67   64   65 1   
    68   64   70 1   
    69   64   71 1   
    70   65   66 1   
    71   65   67 2   
    72   66   72 1   
    73   66   73 1   
    74   74   75 1   
    75   74   78 1   
    76   75   76 1   
    77   75   79 1   
    78   75   80 1   
    79   76   77 2   
    80   76   81 1   
    81   81   82 1   
    82   81   93 1   
    83   82   83 1   
    84   82   85 1   
    85   82   94 1   
    86   83   84 2   
    87   83  102 1   
    88   85   86 1   
    89   85   95 1   
    90   85   96 1   
    91   86   87 ar  
    92   86   88 ar  
    93   87   89 ar  
    94   87   97 1   
    95   88   90 ar  
    96   88   98 1   
    97   89   91 ar  
    98   89   99 1   
    99   90   91 ar  
   100   90  100 1   
   101   91   92 1   
   102   92  101 1   
   103  102  103 1   
   104  102  110 1   
   105  103  104 1   
   106  103  106 1   
   107  103  111 1   
   108  104  105 2   
   109  104  121 1   
   110  106  107 1   
   111  106  108 1   
   112  106  112 1   
   113  107  109 1   
   114  107  113 1   
   115  107  114 1   
   116  108  115 1   
   117  108  116 1   
   118  108  117 1   
   119  109  118 1   
   120  109  119 1   
   121  109  120 1   
   122  121  122 1   
   123  121  127 1   
   124  122  123 1   
   125  122  125 1   
   126  122  128 1   
   127  123  124 2   
   128  123  132 1   
   129  125  126 1   
   130  125  129 1   
   131  125  130 1   
   132  126  131 1   
   133  132  133 1   
   134  132  137 1   
   135  133  134 1   
   136  133  136 1   
   137  133  138 1   
   138  134  135 2   
   139  134  142 1   
   140  136  139 1   
   141  136  140 1   
   142  136  141 1   
   143  142  143 1   
   144  142  147 1   
   145  143  144 1   
   146  143  146 1   
   147  143  148 1   
   148  144  145 2   
   149  144  152 1   
   150  146  149 1   
   151  146  150 1   
   152  146  151 1   
   153  152  153 1   
   154  152  161 1   
   155  153  154 1   
   156  153  156 1   
   157  153  162 1   
   158  154  155 2   
   159  154  167 1   
   160  156  157 1   
   161  156  163 1   
   162  156  164 1   
   163  157  158 1   
   164  157  165 1   
   165  157  166 1   
   166  158  159 1   
   167  158  160 1   
   168  167  168 1   
   169  167  172 1   
   170  168  169 1   
   171  168  170 1   
   172  168  171 1   
   173  174  175 1   
   174  174  176 1   
   175  177  178 1   
   176  177  179 1   
   177  180  181 1   
   178  180  182 1   
   179  183  184 1   
   180  183  185 1   
   181  186  187 1   
   182  186  188 1   
   183  189  190 1   
   184  189  191 1   
   185  192  193 1   
   186  192  194 1   
@<TRIPOS>SUBSTRUCTURE
     1 MOL         1 TEMP              0 ****  ****    0 ROOT
