@<TRIPOS>MOLECULE
MOL
  181   177     1     0     0
SMALL
resp


@<TRIPOS>ATOM
      1 C1         -3.4820    1.6220    3.8740 c3        1 MOL     -0.411328
      2 C2         -4.4230    0.5170    3.4020 c         1 MOL      0.738070
      3 O1         -4.0120   -0.3310    2.6180 o         1 MOL     -0.571848
      4 H1         -3.3840    1.5760    4.9590 hc        1 MOL      0.102972
      5 H2         -2.5030    1.4870    3.4150 hc        1 MOL      0.102972
      6 H3         -3.8870    2.5920    3.5880 hc        1 MOL      0.102972
      7 N1         -5.6330    0.4240    3.9050 n         1 MOL     -0.542601
      8 C3         -6.7040   -0.3820    3.3660 c3        1 MOL      0.040545
      9 C4         -6.9460   -0.0140    1.8850 c         1 MOL      0.651030
     10 O2         -7.0510    1.1970    1.5630 o         1 MOL     -0.605431
     11 C5         -7.9000   -0.0340    4.2190 c3        1 MOL     -0.206817
     12 C6         -9.1360   -0.8630    3.8880 c         1 MOL      0.642433
     13 O3        -10.2380   -0.2330    4.1060 o         1 MOL     -0.707074
     14 O4         -9.1070   -2.1260    3.6580 o         1 MOL     -0.707074
     15 H4         -5.8290    1.0830    4.6540 hn        1 MOL      0.278390
     16 H5         -6.4840   -1.4350    3.5170 h1        1 MOL      0.073605
     17 H6         -8.1310    1.0360    4.2510 hc        1 MOL      0.053207
     18 H7         -7.6720   -0.3270    5.2480 hc        1 MOL      0.053207
     19 N2         -6.9420   -0.9410    0.9740 n         1 MOL     -0.548700
     20 C7         -7.0660   -0.7470   -0.4630 c3        1 MOL      0.605913
     21 C8         -5.7080   -1.1240   -1.1840 c         1 MOL      0.464757
     22 O5         -5.0770   -2.0040   -0.5870 o         1 MOL     -0.575257
     23 C9         -8.2600   -1.5590   -0.9380 c3        1 MOL     -0.541992
     24 H8         -6.6250   -1.8630    1.2240 hn        1 MOL      0.276787
     25 H9         -7.3450    0.2840   -0.6850 h1        1 MOL     -0.053321
     26 H10        -8.1490   -2.6240   -0.7070 hc        1 MOL      0.124849
     27 H11        -9.1450   -1.3790   -0.3270 hc        1 MOL      0.124849
     28 H12        -8.4460   -1.3250   -1.9840 hc        1 MOL      0.124849
     29 N3         -5.3650   -0.6880   -2.3560 n         1 MOL     -0.641757
     30 C10        -4.0110   -0.7690   -2.9370 c3        1 MOL     -0.012348
     31 C11        -3.5790   -2.1140   -3.6180 c         1 MOL      0.783196
     32 O6         -2.7170   -2.0900   -4.4600 o         1 MOL     -0.633195
     33 C12        -3.7940    0.4760   -3.8970 c3        1 MOL     -0.071299
     34 C13        -4.4260    1.7540   -3.4020 c         1 MOL      0.768471
     35 O7         -5.6160    1.9340   -3.8200 o         1 MOL     -0.748470
     36 O8         -3.7890    2.6060   -2.7440 o         1 MOL     -0.748470
     37 H13        -5.9730    0.0680   -2.6570 hn        1 MOL      0.325976
     38 H14        -3.3520   -0.6270   -2.0820 h1        1 MOL      0.091450
     39 H15        -4.1250    0.2690   -4.9120 hc        1 MOL      0.021557
     40 H16        -2.7050    0.6170   -3.9240 hc        1 MOL      0.021557
     41 N4         -4.1400   -3.2310   -3.2320 n         1 MOL     -0.460898
     42 C14        -4.0110   -4.5070   -3.8910 c3        1 MOL     -0.058447
     43 C15        -2.6580   -5.2320   -3.8530 c         1 MOL      0.476289
     44 O9         -2.4890   -6.4470   -4.2040 o         1 MOL     -0.557746
     45 H17        -4.6600   -3.1700   -2.3560 hn        1 MOL      0.311732
     46 H18        -4.3230   -4.3690   -4.9300 h1        1 MOL      0.083067
     47 H19        -4.7200   -5.2210   -3.4620 h1        1 MOL      0.083067
     48 N5         -1.6590   -4.4960   -3.2930 n         1 MOL     -0.250081
     49 C16        -0.3710   -5.1750   -3.0350 c3        1 MOL      0.085130
     50 C17         0.0750   -5.0720   -1.4960 c         1 MOL      0.422656
     51 O10        -0.2860   -4.1210   -0.7940 o         1 MOL     -0.424597
     52 C18         0.7270   -4.4080   -3.8360 c3        1 MOL     -0.129363
     53 C19         0.5430   -4.5140   -5.2890 c         1 MOL      0.530471
     54 N6         -0.4400   -3.8090   -5.8500 n         1 MOL     -0.684140
     55 O11         1.1800   -5.2840   -6.0180 o         1 MOL     -0.561410
     56 H20        -1.8380   -3.5270   -3.0510 hn        1 MOL      0.175104
     57 H21        -0.3050   -6.1830   -3.4240 h1        1 MOL      0.078560
     58 H22         1.7290   -4.7850   -3.6170 hc        1 MOL      0.056660
     59 H23         0.7920   -3.3610   -3.5170 hc        1 MOL      0.056660
     60 H24        -1.0020   -3.2390   -5.2340 hn        1 MOL      0.339958
     61 H25        -0.4570   -3.6990   -6.8470 hn        1 MOL      0.339958
     62 N7          0.8570   -6.0990   -1.0730 n         1 MOL     -0.525828
     63 C20         1.1860   -6.2370    0.3640 c3        1 MOL     -0.037612
     64 C21         2.3080   -5.2970    0.7920 c         1 MOL      0.485580
     65 O12         2.7810   -4.3990    0.0770 o         1 MOL     -0.418037
     66 H26         1.1930   -6.8020   -1.7090 hn        1 MOL      0.338369
     67 H27         1.5530   -7.2290    0.6160 h1        1 MOL      0.088290
     68 H28         0.3660   -5.9780    1.0340 h1        1 MOL      0.088290
     69 N8          2.7950   -5.5530    2.0120 n         1 MOL     -0.188296
     70 C22         4.1500   -5.2370    2.4390 c3        1 MOL     -0.554497
     71 C23         4.3000   -3.7480    2.8050 c         1 MOL      0.576629
     72 O13         5.4370   -3.2980    2.8020 o         1 MOL     -0.525651
     73 C24         4.7050   -6.1260    3.6020 c3        1 MOL      0.522551
     74 C25         3.8800   -5.8900    4.8510 c3        1 MOL     -0.470303
     75 O14         4.6030   -7.4570    3.2030 oh        1 MOL     -0.638141
     76 H29         2.3030   -6.2740    2.5190 hn        1 MOL      0.168933
     77 H30         4.8060   -5.3560    1.5790 h1        1 MOL      0.232104
     78 H31         5.7410   -5.8920    3.8040 h1        1 MOL      0.057918
     79 H32         3.6600   -7.6410    3.1460 ho        1 MOL      0.392917
     80 H33         4.1900   -6.4750    5.7210 hc        1 MOL      0.116374
     81 H34         4.0620   -4.8410    5.1110 hc        1 MOL      0.116374
     82 H35         2.8060   -5.9080    4.6790 hc        1 MOL      0.116374
     83 N9          3.1550   -3.1030    3.1500 n         1 MOL     -0.235608
     84 C26         3.0280   -1.6700    3.2920 c3        1 MOL     -0.009741
     85 C27         2.0560   -1.0620    2.2420 c         1 MOL      0.391610
     86 O15         0.8970   -1.5200    2.1620 o         1 MOL     -0.492586
     87 C28         2.3710   -1.4470    4.7420 c3        1 MOL      0.118283
     88 C29         3.0900   -2.0430    5.9440 c3        1 MOL     -0.123207
     89 C30         2.2510    0.0350    4.9890 c3        1 MOL     -0.075909
     90 C31         4.5890   -1.9920    5.9980 c3        1 MOL      0.015428
     91 H36         2.2540   -3.5620    3.0320 hn        1 MOL      0.181260
     92 H37         3.9630   -1.1090    3.3770 h1        1 MOL      0.076854
     93 H38         1.3560   -1.8560    4.8010 hc        1 MOL      0.018164
     94 H39         2.9070   -3.1280    5.9670 hc        1 MOL      0.030065
     95 H40         2.6680   -1.6330    6.8600 hc        1 MOL      0.030065
     96 H41         1.7080    0.6520    4.2750 hc        1 MOL      0.014656
     97 H42         1.7950    0.2000    5.9710 hc        1 MOL      0.014656
     98 H43         3.2560    0.4330    5.1670 hc        1 MOL      0.014656
     99 H44         5.0000   -0.9900    5.8680 hc        1 MOL     -0.010043
    100 H45         4.9590   -2.3760    6.9440 hc        1 MOL     -0.010043
    101 H46         4.9600   -2.5610    5.1450 hc        1 MOL     -0.010043
    102 N10         2.3960    0.0670    1.6900 n         1 MOL     -0.262011
    103 C32         1.7750    0.9700    0.6920 c3        1 MOL      0.016194
    104 C33         2.7780    1.5150   -0.3760 c         1 MOL      0.381620
    105 O16         2.5000    2.4750   -1.0500 o         1 MOL     -0.360735
    106 C34         0.9600    2.1190    1.3420 c3        1 MOL      0.123831
    107 C35        -0.3720    2.5260    0.7460 c         1 MOL      0.530802
    108 O17        -0.5550    2.3740   -0.4440 o         1 MOL     -0.694322
    109 O18        -1.1910    3.1480    1.3820 o         1 MOL     -0.694322
    110 H47         3.2460    0.4410    2.0860 hn        1 MOL      0.195321
    111 H48         1.1360    0.3120    0.0970 h1        1 MOL      0.128354
    112 H49         1.5440    3.0390    1.3600 hc        1 MOL     -0.032952
    113 H50         0.8760    1.9410    2.4110 hc        1 MOL     -0.032952
    114 N11         3.9930    0.8430   -0.5150 n         1 MOL     -0.358440
    115 C36         5.2330    1.2100   -1.3440 c3        1 MOL      0.024186
    116 C37         5.5120    2.6980   -1.0390 c         1 MOL      0.390007
    117 O19         5.8160    3.0440    0.1120 o         1 MOL     -0.532974
    118 C38         6.4850    0.4370   -0.9320 c3        1 MOL     -0.094521
    119 C39         6.6140   -0.9880   -1.2210 ca        1 MOL      0.025802
    120 C40         5.8590   -1.9040   -0.4410 ca        1 MOL     -0.092119
    121 C41         7.3330   -1.3940   -2.3620 ca        1 MOL     -0.092119
    122 C42         6.0490   -3.2370   -0.6670 ca        1 MOL     -0.133157
    123 C43         7.4400   -2.7840   -2.6050 ca        1 MOL     -0.133157
    124 C44         6.7760   -3.6980   -1.7620 ca        1 MOL     -0.075354
    125 H51         4.1180    0.0210    0.0510 hn        1 MOL      0.204944
    126 H52         4.9950    1.0440   -2.3890 h1        1 MOL      0.079089
    127 H53         6.5900    0.5820    0.1390 hc        1 MOL      0.066788
    128 H54         7.4150    0.8780   -1.2670 hc        1 MOL      0.066788
    129 H55         5.2900   -1.5080    0.4030 ha        1 MOL      0.083657
    130 H56         7.7430   -0.6420   -3.0200 ha        1 MOL      0.083657
    131 H57         5.5740   -3.9720   -0.0280 ha        1 MOL      0.092617
    132 H58         8.0550   -3.1610   -3.4130 ha        1 MOL      0.092617
    133 H59         6.9680   -4.7670   -1.8080 ha        1 MOL      0.092004
    134 N12         5.3500    3.5700   -2.0120 n         1 MOL     -0.190720
    135 C45         5.7250    4.9810   -1.9250 c3        1 MOL      0.068649
    136 C46         4.8740    5.7240   -0.9670 c         1 MOL      0.319065
    137 O20         5.4040    6.6070   -0.3390 o         1 MOL     -0.523114
    138 C47         5.5820    5.5310   -3.3260 c3        1 MOL     -0.026082
    139 C48         4.7110    4.5210   -4.0630 c3        1 MOL     -0.070478
    140 C49         4.7640    3.1820   -3.3000 c3        1 MOL     -0.002932
    141 H60         6.7600    5.0670   -1.5910 h1        1 MOL      0.077914
    142 H61         5.0820    6.4960   -3.3510 hc        1 MOL      0.036249
    143 H62         6.5260    5.7370   -3.8180 hc        1 MOL      0.036249
    144 H63         3.7000    4.8900   -4.2290 hc        1 MOL      0.037113
    145 H64         5.1350    4.2460   -5.0310 hc        1 MOL      0.037113
    146 H65         3.8170    2.7420   -2.9870 h1        1 MOL      0.051739
    147 H66         5.2520    2.3760   -3.8440 h1        1 MOL      0.051739
    148 N13         3.5530    5.4500   -0.7630 n         1 MOL     -0.139220
    149 C50         2.7160    6.1730    0.1660 c3        1 MOL     -0.082820
    150 C51         3.0810    6.0310    1.6620 c         1 MOL      0.423916
    151 O21         2.7840    7.0140    2.3960 o         1 MOL     -0.553170
    152 C52         1.2320    5.8870   -0.0460 c3        1 MOL      0.072370
    153 C53         0.4790    6.3250   -1.3170 c3        1 MOL     -0.152463
    154 C54        -0.8330    5.5870   -1.3820 c         1 MOL      0.663884
    155 O22        -1.6830    5.8380   -0.5130 o         1 MOL     -0.725542
    156 O23        -1.1180    4.6730   -2.1840 o         1 MOL     -0.725542
    157 H67         3.2760    4.6440   -1.3030 hn        1 MOL      0.182190
    158 H68         2.7860    7.2500   -0.0030 h1        1 MOL      0.095809
    159 H69         0.6960    6.2990    0.7990 hc        1 MOL      0.030276
    160 H70         1.1090    4.8030    0.0370 hc        1 MOL      0.030276
    161 H71         1.1590    6.2090   -2.1610 hc        1 MOL      0.017881
    162 H72         0.3220    7.4100   -1.3540 hc        1 MOL      0.017881
    163 N14         3.6740    4.9450    2.1390 n         1 MOL     -0.167149
    164 C55         4.0370    4.8150    3.5550 c3        1 MOL     -0.126111
    165 H73         3.6720    5.6830    4.1040 h1        1 MOL      0.068140
    166 H74         3.5880    3.9110    3.9650 h1        1 MOL      0.068140
    167 H75         5.1220    4.7570    3.6480 h1        1 MOL      0.068140
    168 H76         3.7940    4.1900    1.4760 hn        1 MOL      0.229828
    169 Ca1        -2.9860    3.5970   -0.5160 Ca        1 MOL      1.734671
    170 O24        -5.6400    2.7410   -0.3000 oh        1 MOL     -0.777142
    171 H77        -6.2620    2.4030    0.3440 ho        1 MOL      0.380677
    172 H78        -6.1530    3.3460   -0.8480 ho        1 MOL      0.380677
    173 O25        -3.0930    0.9480    0.4360 oh        1 MOL     -0.777142
    174 H79        -3.4350    0.5220    1.2220 ho        1 MOL      0.380677
    175 H80        -2.3420    0.4130    0.1780 ho        1 MOL      0.380677
    176 O26        -4.6180    5.5970   -1.1900 oh        1 MOL     -0.777142
    177 H81        -5.4290    5.3950   -1.6570 ho        1 MOL      0.380677
    178 H82        -4.4140    6.4930   -1.4560 ho        1 MOL      0.380677
    179 O27        -4.3550    4.5390    1.7780 oh        1 MOL     -0.777142
    180 H83        -5.3070    4.4380    1.9140 ho        1 MOL      0.380677
    181 H84        -4.1140    5.2920    2.3090 ho        1 MOL      0.380677
@<TRIPOS>BOND
     1    1    2 1   
     2    1    4 1   
     3    1    5 1   
     4    1    6 1   
     5    2    3 2   
     6    2    7 1   
     7    7    8 1   
     8    7   15 1   
     9    8    9 1   
    10    8   11 1   
    11    8   16 1   
    12    9   10 2   
    13    9   19 1   
    14   11   12 1   
    15   11   17 1   
    16   11   18 1   
    17   12   13 1   
    18   12   14 1   
    19   19   20 1   
    20   19   24 1   
    21   20   21 1   
    22   20   23 1   
    23   20   25 1   
    24   21   22 2   
    25   21   29 1   
    26   23   26 1   
    27   23   27 1   
    28   23   28 1   
    29   29   30 1   
    30   29   37 1   
    31   30   31 1   
    32   30   33 1   
    33   30   38 1   
    34   31   32 2   
    35   31   41 1   
    36   33   34 1   
    37   33   39 1   
    38   33   40 1   
    39   34   35 1   
    40   34   36 1   
    41   41   42 1   
    42   41   45 1   
    43   42   43 1   
    44   42   46 1   
    45   42   47 1   
    46   43   44 2   
    47   43   48 1   
    48   48   49 1   
    49   48   56 1   
    50   49   50 1   
    51   49   52 1   
    52   49   57 1   
    53   50   51 2   
    54   50   62 1   
    55   52   53 1   
    56   52   58 1   
    57   52   59 1   
    58   53   54 1   
    59   53   55 2   
    60   54   60 1   
    61   54   61 1   
    62   62   63 1   
    63   62   66 1   
    64   63   64 1   
    65   63   67 1   
    66   63   68 1   
    67   64   65 2   
    68   64   69 1   
    69   69   70 1   
    70   69   76 1   
    71   70   71 1   
    72   70   73 1   
    73   70   77 1   
    74   71   72 2   
    75   71   83 1   
    76   73   74 1   
    77   73   75 1   
    78   73   78 1   
    79   74   80 1   
    80   74   81 1   
    81   74   82 1   
    82   75   79 1   
    83   83   84 1   
    84   83   91 1   
    85   84   85 1   
    86   84   87 1   
    87   84   92 1   
    88   85   86 2   
    89   85  102 1   
    90   87   88 1   
    91   87   89 1   
    92   87   93 1   
    93   88   90 1   
    94   88   94 1   
    95   88   95 1   
    96   89   96 1   
    97   89   97 1   
    98   89   98 1   
    99   90   99 1   
   100   90  100 1   
   101   90  101 1   
   102  102  103 1   
   103  102  110 1   
   104  103  104 1   
   105  103  106 1   
   106  103  111 1   
   107  104  105 2   
   108  104  114 1   
   109  106  107 1   
   110  106  112 1   
   111  106  113 1   
   112  107  108 1   
   113  107  109 1   
   114  114  115 1   
   115  114  125 1   
   116  115  116 1   
   117  115  118 1   
   118  115  126 1   
   119  116  117 2   
   120  116  134 1   
   121  118  119 1   
   122  118  127 1   
   123  118  128 1   
   124  119  120 ar  
   125  119  121 ar  
   126  120  122 ar  
   127  120  129 1   
   128  121  123 ar  
   129  121  130 1   
   130  122  124 ar  
   131  122  131 1   
   132  123  124 ar  
   133  123  132 1   
   134  124  133 1   
   135  134  135 1   
   136  134  140 1   
   137  135  136 1   
   138  135  138 1   
   139  135  141 1   
   140  136  137 2   
   141  136  148 1   
   142  138  139 1   
   143  138  142 1   
   144  138  143 1   
   145  139  140 1   
   146  139  144 1   
   147  139  145 1   
   148  140  146 1   
   149  140  147 1   
   150  148  149 1   
   151  148  157 1   
   152  149  150 1   
   153  149  152 1   
   154  149  158 1   
   155  150  151 2   
   156  150  163 1   
   157  152  153 1   
   158  152  159 1   
   159  152  160 1   
   160  153  154 1   
   161  153  161 1   
   162  153  162 1   
   163  154  155 1   
   164  154  156 1   
   165  163  164 1   
   166  163  168 1   
   167  164  165 1   
   168  164  166 1   
   169  164  167 1   
   170  170  171 1   
   171  170  172 1   
   172  173  174 1   
   173  173  175 1   
   174  176  177 1   
   175  176  178 1   
   176  179  180 1   
   177  179  181 1   
@<TRIPOS>SUBSTRUCTURE
     1 MOL         1 TEMP              0 ****  ****    0 ROOT
