@<TRIPOS>MOLECULE
MOL
  189   185     1     0     0
SMALL
resp


@<TRIPOS>ATOM
      1 C1          3.7980    4.4180   -3.4760 c3        1 MOL     -0.334742
      2 C2          4.5400    3.3330   -2.5960 c         1 MOL      0.637240
      3 O1          3.9560    2.8630   -1.6080 o         1 MOL     -0.478389
      4 H1          2.7190    4.2950   -3.3710 hc        1 MOL      0.082529
      5 H2          4.0830    5.4160   -3.1420 hc        1 MOL      0.082529
      6 H3          4.0760    4.2910   -4.5220 hc        1 MOL      0.082529
      7 N1          5.7100    2.9060   -3.0960 n         1 MOL     -0.640874
      8 C3          6.4890    1.8000   -2.6400 c3        1 MOL      0.283170
      9 C4          5.7400    0.5530   -2.1810 c         1 MOL      0.207373
     10 O2          5.4390    0.2550   -0.9830 o         1 MOL     -0.336202
     11 C5          7.6610    2.2040   -1.6980 c3        1 MOL     -0.109965
     12 C6          7.3720    2.9610   -0.4190 c         1 MOL      0.669451
     13 O3          6.2060    3.0280    0.0040 o         1 MOL     -0.703829
     14 O4          8.3510    3.4500    0.2320 o         1 MOL     -0.703829
     15 H4          6.1110    3.3080   -3.9320 hn        1 MOL      0.338093
     16 H5          7.0180    1.4470   -3.5260 h1        1 MOL     -0.014236
     17 H6          8.3170    2.8660   -2.2780 hc        1 MOL      0.006959
     18 H7          8.2710    1.3290   -1.4830 hc        1 MOL      0.006959
     19 N2          5.3390   -0.2540   -3.1790 n         1 MOL     -0.283602
     20 C7          4.6320   -1.6220   -3.0180 c3        1 MOL      0.029593
     21 C8          5.3690   -2.7060   -2.2690 c         1 MOL      0.397987
     22 O5          6.0270   -3.5460   -2.9400 o         1 MOL     -0.576530
     23 C9          3.1520   -1.5010   -2.4510 c3        1 MOL      0.267062
     24 C10         2.3980   -2.8440   -2.4030 c3        1 MOL      0.063383
     25 C11         2.3400   -0.3700   -3.2150 c3        1 MOL     -0.207586
     26 C12         2.3290   -3.5940   -3.7850 c3        1 MOL     -0.300876
     27 H8          5.5580    0.0540   -4.1120 hn        1 MOL      0.236094
     28 H9          4.5690   -1.9390   -4.0580 h1        1 MOL      0.039289
     29 H10         3.1260   -1.1320   -1.4240 hc        1 MOL     -0.265550
     30 H11         1.3840   -2.7530   -2.0440 hc        1 MOL     -0.001814
     31 H12         3.0310   -3.4900   -1.7890 hc        1 MOL     -0.001814
     32 H13         2.6300   -0.3280   -4.2680 hc        1 MOL      0.033237
     33 H14         1.2540   -0.3880   -3.1290 hc        1 MOL      0.033237
     34 H15         2.6200    0.6050   -2.8090 hc        1 MOL      0.033237
     35 H16         3.2760   -4.1040   -3.9260 hc        1 MOL      0.058599
     36 H17         1.5420   -4.3490   -3.6930 hc        1 MOL      0.058599
     37 H18         2.2040   -2.9020   -4.6200 hc        1 MOL      0.058599
     38 N3          5.4440   -2.7320   -0.9380 n         1 MOL      0.007593
     39 C13         6.3730   -3.5890   -0.2260 c3        1 MOL     -0.018657
     40 C14         5.8570   -4.9270    0.3660 c         1 MOL      0.561543
     41 O6          6.4610   -5.9180    0.2070 o         1 MOL     -0.559666
     42 C15         7.1930   -2.8000    0.8960 c3        1 MOL     -0.067104
     43 C16         8.0240   -1.6340    0.4660 c         1 MOL      0.599296
     44 O7          8.4730   -1.6640   -0.7070 o         1 MOL     -0.673245
     45 O8          8.2940   -0.7200    1.3110 o         1 MOL     -0.673245
     46 H19         5.1150   -1.9280   -0.4110 hn        1 MOL      0.174908
     47 H20         7.0700   -3.9620   -0.9810 h1        1 MOL      0.059043
     48 H21         7.8430   -3.4620    1.4650 hc        1 MOL      0.026597
     49 H22         6.4670   -2.3450    1.5650 hc        1 MOL      0.026597
     50 N4          4.7360   -4.9730    1.1640 n         1 MOL     -0.613943
     51 C17         4.0000   -3.7590    1.6360 c3        1 MOL      0.283920
     52 C18         4.3640   -3.2240    3.0220 c         1 MOL      0.410096
     53 O9          5.2720   -3.7740    3.6520 o         1 MOL     -0.539021
     54 H23         4.4460   -5.8870    1.4810 hn        1 MOL      0.309278
     55 H24         2.9750   -4.1410    1.6170 h1        1 MOL     -0.017818
     56 H25         4.0040   -3.0070    0.8460 h1        1 MOL     -0.017818
     57 N5          3.8860   -2.0240    3.4640 n         1 MOL     -0.451284
     58 C19         2.5480   -1.5030    3.0300 c3        1 MOL      0.080540
     59 C20         2.4710   -0.9930    1.6110 c         1 MOL      0.041965
     60 O10         3.4100   -0.6250    0.9650 o         1 MOL     -0.193031
     61 C21         2.0490   -0.4700    4.0790 c3        1 MOL     -0.416722
     62 C22         2.8820    0.8620    4.2050 c         1 MOL      0.801616
     63 O11         2.8440    1.6180    3.2470 o         1 MOL     -0.713961
     64 O12         3.5390    1.0810    5.2660 o         1 MOL     -0.713961
     65 H26         4.4840   -1.5390    4.1260 hn        1 MOL      0.354709
     66 H27         1.8140   -2.3010    3.1190 h1        1 MOL      0.089767
     67 H28         2.0990   -0.9070    5.0850 hc        1 MOL      0.107132
     68 H29         1.0040   -0.2400    3.8530 hc        1 MOL      0.107132
     69 N6          1.2940   -0.9450    0.9530 n         1 MOL     -0.170470
     70 C23        -0.0460   -1.3890    1.4280 c3        1 MOL     -0.190807
     71 C24        -0.2420   -2.8150    1.0760 c         1 MOL      0.522487
     72 O13         0.6490   -3.6750    1.0590 o         1 MOL     -0.485754
     73 H30         1.3070   -0.5190    0.0310 hn        1 MOL      0.311465
     74 H31        -0.8990   -0.7580    1.1820 h1        1 MOL      0.144423
     75 H32        -0.0430   -1.2980    2.5210 h1        1 MOL      0.144423
     76 N7         -1.5550   -3.1190    0.7550 n         1 MOL     -0.409542
     77 C25        -2.0680   -4.3890    0.2580 c3        1 MOL      0.287044
     78 C26        -2.7350   -4.2230   -1.1290 c         1 MOL      0.281356
     79 O14        -2.5330   -5.0920   -1.9990 o         1 MOL     -0.498414
     80 C27        -2.8640   -5.1520    1.4080 c3        1 MOL     -0.254125
     81 C28        -4.0810   -4.4360    2.0790 c3        1 MOL     -0.114656
     82 C29        -5.1800   -4.2110    0.9930 c         1 MOL      0.431300
     83 N8         -5.6570   -5.1440    0.2280 n         1 MOL     -0.563339
     84 O15        -5.6450   -3.0690    0.8230 o         1 MOL     -0.558732
     85 H33        -2.0860   -2.2640    0.6510 hn        1 MOL      0.207558
     86 H34        -1.2050   -5.0470    0.1740 h1        1 MOL      0.063342
     87 H35        -2.1950   -5.3720    2.2470 hc        1 MOL      0.072905
     88 H36        -3.2860   -6.0600    0.9670 hc        1 MOL      0.072905
     89 H37        -3.7970   -3.4900    2.5310 hc        1 MOL      0.083760
     90 H38        -4.5770   -5.0220    2.8470 hc        1 MOL      0.083760
     91 H39        -5.6260   -6.1250    0.4190 hn        1 MOL      0.305693
     92 H40        -6.4330   -4.8090   -0.3170 hn        1 MOL      0.305693
     93 N9         -3.4160   -3.1100   -1.5230 n         1 MOL     -0.190471
     94 C30        -3.7500   -2.5900   -2.9430 c3        1 MOL     -0.324361
     95 C31        -5.1120   -1.9640   -3.0740 c         1 MOL      0.485997
     96 O16        -5.5700   -1.6010   -4.1580 o         1 MOL     -0.546071
     97 C32        -2.5770   -1.7900   -3.5680 c3        1 MOL      0.140335
     98 C33        -1.2540   -2.5130   -3.5910 c3        1 MOL     -0.207553
     99 C34        -2.3470   -0.3200   -2.9690 c3        1 MOL     -0.207553
    100 H41        -3.4910   -2.3700   -0.8410 hn        1 MOL      0.223777
    101 H42        -3.8510   -3.5360   -3.4860 h1        1 MOL      0.180623
    102 H43        -2.8630   -1.7580   -4.6210 hc        1 MOL      0.041242
    103 H44        -0.6220   -2.0070   -4.3250 hc        1 MOL      0.060923
    104 H45        -0.7190   -2.4480   -2.6420 hc        1 MOL      0.060923
    105 H46        -1.4460   -3.5680   -3.7950 hc        1 MOL      0.060923
    106 H47        -3.2420    0.2580   -3.2190 hc        1 MOL      0.060923
    107 H48        -2.3190   -0.3840   -1.8830 hc        1 MOL      0.060923
    108 H49        -1.4160    0.0910   -3.3530 hc        1 MOL      0.060923
    109 N10        -5.6680   -1.6750   -1.9300 n         1 MOL     -0.136855
    110 C35        -7.0170   -1.0390   -1.9180 c3        1 MOL     -0.045519
    111 C36        -7.1630    0.3710   -1.2350 c         1 MOL      0.693056
    112 O17        -8.2100    1.0050   -1.3790 o         1 MOL     -0.595600
    113 C37        -8.0400   -2.0250   -1.2560 c3        1 MOL     -0.248218
    114 C38        -8.0450   -3.3940   -1.9670 c         1 MOL      0.614882
    115 N11        -8.2060   -3.4660   -3.2230 n         1 MOL     -0.762377
    116 O18        -7.6930   -4.3200   -1.3550 o         1 MOL     -0.552113
    117 H50        -5.4010   -2.1710   -1.1000 hn        1 MOL      0.273753
    118 H51        -7.3600   -0.8050   -2.9330 h1        1 MOL      0.048586
    119 H52        -9.0410   -1.5960   -1.1620 hc        1 MOL      0.087057
    120 H53        -7.7120   -2.2510   -0.2490 hc        1 MOL      0.087057
    121 H54        -8.4260   -2.6020   -3.6850 hn        1 MOL      0.373743
    122 H55        -8.0660   -4.3750   -3.6430 hn        1 MOL      0.373743
    123 N12        -6.1340    0.8280   -0.5440 n         1 MOL     -0.642729
    124 C39        -6.1980    2.1090    0.1810 c3        1 MOL      0.507451
    125 C40        -4.7980    2.7180    0.3360 c         1 MOL      0.194983
    126 O19        -3.8250    1.9790    0.1760 o         1 MOL     -0.260922
    127 C41        -6.9110    1.9100    1.5300 c3        1 MOL     -0.377002
    128 C42        -6.3620    0.7380    2.3580 ca        1 MOL      0.394820
    129 C43        -7.1700   -0.3620    2.7330 ca        1 MOL     -0.360118
    130 C44        -5.0010    0.7220    2.7660 ca        1 MOL     -0.360118
    131 C45        -6.6860   -1.5030    3.3790 ca        1 MOL     -0.105593
    132 C46        -4.5400   -0.4550    3.5410 ca        1 MOL     -0.105593
    133 C47        -5.3710   -1.5340    3.8200 ca        1 MOL      0.214982
    134 O20        -4.8840   -2.6050    4.5070 oh        1 MOL     -0.458855
    135 H56        -5.2640    0.3500   -0.3470 hn        1 MOL      0.220362
    136 H57        -6.7450    2.8070   -0.4450 h1        1 MOL     -0.023923
    137 H58        -7.9780    1.8080    1.4080 hc        1 MOL      0.091847
    138 H59        -6.6550    2.8070    2.1000 hc        1 MOL      0.091847
    139 H60        -8.2200   -0.3180    2.4790 ha        1 MOL      0.129479
    140 H61        -4.2550    1.4950    2.6620 ha        1 MOL      0.129479
    141 H62        -7.3570   -2.3400    3.5260 ha        1 MOL      0.114692
    142 H63        -3.5190   -0.5210    3.8970 ha        1 MOL      0.114692
    143 H64        -5.5340   -3.2890    4.7160 ho        1 MOL      0.322947
    144 N13        -4.7420    4.0120    0.6520 n         1 MOL     -0.407316
    145 C48        -3.6870    4.9210    1.0440 c3        1 MOL      0.024558
    146 C49        -2.6520    5.2760   -0.0930 c         1 MOL      0.353206
    147 O21        -2.0200    6.3830   -0.1230 o         1 MOL     -0.504438
    148 C50        -2.9020    4.5290    2.2710 c3        1 MOL     -0.139388
    149 C51        -3.8650    4.6830    3.5200 c3        1 MOL      0.219970
    150 C52        -3.2910    4.0550    4.7950 c         1 MOL      0.432029
    151 O22        -3.4880    2.7890    4.8550 o         1 MOL     -0.627815
    152 O23        -2.6690    4.6790    5.6990 o         1 MOL     -0.627815
    153 H65        -5.5990    4.5200    0.8350 hn        1 MOL      0.280420
    154 H66        -4.1900    5.8290    1.3930 h1        1 MOL      0.052047
    155 H67        -2.0780    5.2350    2.2810 hc        1 MOL      0.105247
    156 H68        -2.6280    3.4770    2.2410 hc        1 MOL      0.105247
    157 H69        -4.9050    4.4010    3.4170 hc        1 MOL     -0.088997
    158 H70        -3.9500    5.7450    3.7450 hc        1 MOL     -0.088997
    159 N14        -2.4260    4.3030   -1.0010 n         1 MOL     -0.092057
    160 C53        -1.3770    4.3930   -2.0080 c3        1 MOL     -0.373141
    161 C54        -1.8940    5.2730   -3.1380 c         1 MOL      0.536684
    162 O24        -1.1520    5.8210   -3.9490 o         1 MOL     -0.528572
    163 C55        -0.7080    3.0490   -2.3100 c3        1 MOL      0.319844
    164 C56        -0.3850    1.9910   -1.1660 c3        1 MOL      0.435372
    165 C57         0.6280    2.5560   -0.2120 c         1 MOL      0.545567
    166 O25         0.3810    3.5840    0.4830 o         1 MOL     -0.656011
    167 O26         1.6590    1.8600   -0.0770 o         1 MOL     -0.656011
    168 H71        -2.7050    3.3570   -0.7820 hn        1 MOL      0.099390
    169 H72        -0.5560    4.9710   -1.5910 h1        1 MOL      0.197614
    170 H73         0.2260    3.2680   -2.8370 hc        1 MOL     -0.083144
    171 H74        -1.3520    2.6080   -3.0710 hc        1 MOL     -0.083144
    172 H75         0.1250    1.1370   -1.5990 hc        1 MOL     -0.209134
    173 H76        -1.3440    1.7230   -0.7260 hc        1 MOL     -0.209134
    174 N15        -3.2690    5.4680   -3.2530 n         1 MOL     -0.222960
    175 C58        -3.9940    6.2910   -4.1760 c3        1 MOL     -0.269201
    176 H77        -5.0620    6.2090   -3.9740 h1        1 MOL      0.099990
    177 H78        -3.6820    7.3300   -4.0600 h1        1 MOL      0.099990
    178 H79        -3.7920    5.9620   -5.1940 h1        1 MOL      0.099990
    179 H80        -3.8090    5.1260   -2.4730 hn        1 MOL      0.175954
    180 Ca1         3.9970    1.9430    0.8710 Ca        1 MOL      1.567701
    181 O27         5.2950    3.3220    2.7550 oh        1 MOL     -0.824518
    182 H81         4.9170    4.0590    3.2360 ho        1 MOL      0.399023
    183 H82         6.1430    3.1790    3.1690 ho        1 MOL      0.399023
    184 O28         5.8790    0.4970    2.3340 oh        1 MOL     -0.824518
    185 H83         6.6050    0.3160    1.7380 ho        1 MOL      0.399023
    186 H84         6.2790    0.8710    3.1120 ho        1 MOL      0.399023
    187 O29         2.9230    4.4970    1.0690 oh        1 MOL     -0.824518
    188 H85         2.0120    4.2660    0.9400 ho        1 MOL      0.399023
    189 H86         2.9920    4.7180    1.9920 ho        1 MOL      0.399023
@<TRIPOS>BOND
     1    1    2 1   
     2    1    4 1   
     3    1    5 1   
     4    1    6 1   
     5    2    3 2   
     6    2    7 1   
     7    7    8 1   
     8    7   15 1   
     9    8    9 1   
    10    8   11 1   
    11    8   16 1   
    12    9   10 2   
    13    9   19 1   
    14   11   12 1   
    15   11   17 1   
    16   11   18 1   
    17   12   13 1   
    18   12   14 1   
    19   19   20 1   
    20   19   27 1   
    21   20   21 1   
    22   20   23 1   
    23   20   28 1   
    24   21   22 2   
    25   21   38 1   
    26   23   24 1   
    27   23   25 1   
    28   23   29 1   
    29   24   26 1   
    30   24   30 1   
    31   24   31 1   
    32   25   32 1   
    33   25   33 1   
    34   25   34 1   
    35   26   35 1   
    36   26   36 1   
    37   26   37 1   
    38   38   39 1   
    39   38   46 1   
    40   39   40 1   
    41   39   42 1   
    42   39   47 1   
    43   40   41 2   
    44   40   50 1   
    45   42   43 1   
    46   42   48 1   
    47   42   49 1   
    48   43   44 1   
    49   43   45 1   
    50   50   51 1   
    51   50   54 1   
    52   51   52 1   
    53   51   55 1   
    54   51   56 1   
    55   52   53 2   
    56   52   57 1   
    57   57   58 1   
    58   57   65 1   
    59   58   59 1   
    60   58   61 1   
    61   58   66 1   
    62   59   60 2   
    63   59   69 1   
    64   61   62 1   
    65   61   67 1   
    66   61   68 1   
    67   62   63 1   
    68   62   64 1   
    69   69   70 1   
    70   69   73 1   
    71   70   71 1   
    72   70   74 1   
    73   70   75 1   
    74   71   72 2   
    75   71   76 1   
    76   76   77 1   
    77   76   85 1   
    78   77   78 1   
    79   77   80 1   
    80   77   86 1   
    81   78   79 2   
    82   78   93 1   
    83   80   81 1   
    84   80   87 1   
    85   80   88 1   
    86   81   82 1   
    87   81   89 1   
    88   81   90 1   
    89   82   83 1   
    90   82   84 2   
    91   83   91 1   
    92   83   92 1   
    93   93   94 1   
    94   93  100 1   
    95   94   95 1   
    96   94   97 1   
    97   94  101 1   
    98   95   96 2   
    99   95  109 1   
   100   97   98 1   
   101   97   99 1   
   102   97  102 1   
   103   98  103 1   
   104   98  104 1   
   105   98  105 1   
   106   99  106 1   
   107   99  107 1   
   108   99  108 1   
   109  109  110 1   
   110  109  117 1   
   111  110  111 1   
   112  110  113 1   
   113  110  118 1   
   114  111  112 2   
   115  111  123 1   
   116  113  114 1   
   117  113  119 1   
   118  113  120 1   
   119  114  115 1   
   120  114  116 2   
   121  115  121 1   
   122  115  122 1   
   123  123  124 1   
   124  123  135 1   
   125  124  125 1   
   126  124  127 1   
   127  124  136 1   
   128  125  126 2   
   129  125  144 1   
   130  127  128 1   
   131  127  137 1   
   132  127  138 1   
   133  128  129 ar  
   134  128  130 ar  
   135  129  131 ar  
   136  129  139 1   
   137  130  132 ar  
   138  130  140 1   
   139  131  133 ar  
   140  131  141 1   
   141  132  133 ar  
   142  132  142 1   
   143  133  134 1   
   144  134  143 1   
   145  144  145 1   
   146  144  153 1   
   147  145  146 1   
   148  145  148 1   
   149  145  154 1   
   150  146  147 2   
   151  146  159 1   
   152  148  149 1   
   153  148  155 1   
   154  148  156 1   
   155  149  150 1   
   156  149  157 1   
   157  149  158 1   
   158  150  151 1   
   159  150  152 1   
   160  159  160 1   
   161  159  168 1   
   162  160  161 1   
   163  160  163 1   
   164  160  169 1   
   165  161  162 2   
   166  161  174 1   
   167  163  164 1   
   168  163  170 1   
   169  163  171 1   
   170  164  165 1   
   171  164  172 1   
   172  164  173 1   
   173  165  166 1   
   174  165  167 1   
   175  174  175 1   
   176  174  179 1   
   177  175  176 1   
   178  175  177 1   
   179  175  178 1   
   180  181  182 1   
   181  181  183 1   
   182  184  185 1   
   183  184  186 1   
   184  187  188 1   
   185  187  189 1   
@<TRIPOS>SUBSTRUCTURE
     1 MOL         1 TEMP              0 ****  ****    0 ROOT
