@<TRIPOS>MOLECULE
MOL
  189   185     1     0     0
SMALL
resp


@<TRIPOS>ATOM
      1 C1         -4.1350   -4.0040   -3.3810 c3        1 MOL     -0.303941
      2 C2         -4.8940   -3.0710   -2.4190 c         1 MOL      0.745812
      3 O1         -4.2390   -2.5190   -1.5440 o         1 MOL     -0.655008
      4 H1         -3.4650   -3.4140   -4.0060 hc        1 MOL      0.076576
      5 H2         -3.5530   -4.7250   -2.8050 hc        1 MOL      0.076576
      6 H3         -4.8480   -4.5340   -4.0120 hc        1 MOL      0.076576
      7 N1         -6.1650   -2.7360   -2.7030 n         1 MOL     -0.773407
      8 C3         -6.8970   -1.6090   -2.1850 c3        1 MOL      0.267131
      9 C4         -6.0730   -0.3780   -1.8200 c         1 MOL      0.246043
     10 O2         -5.6590   -0.2680   -0.6610 o         1 MOL     -0.475981
     11 C5         -7.9480   -2.0140   -1.1920 c3        1 MOL     -0.085370
     12 C6         -7.5830   -3.1550   -0.2370 c         1 MOL      0.769539
     13 O3         -6.7910   -2.9570    0.6870 o         1 MOL     -0.736898
     14 O4         -8.2360   -4.2120   -0.3430 o         1 MOL     -0.736898
     15 H4         -6.6080   -3.1460   -3.5090 hn        1 MOL      0.366144
     16 H5         -7.4890   -1.1870   -3.0040 h1        1 MOL     -0.007445
     17 H6         -8.8800   -2.3400   -1.6420 hc        1 MOL     -0.004852
     18 H7         -8.0870   -1.0810   -0.6530 hc        1 MOL     -0.004852
     19 N2         -5.7130    0.4200   -2.8950 n         1 MOL     -0.233008
     20 C7         -5.0510    1.7350   -2.7550 c3        1 MOL     -0.022485
     21 C8         -5.8460    2.7470   -2.0060 c         1 MOL      0.280344
     22 O5         -6.3220    3.7200   -2.6070 o         1 MOL     -0.536296
     23 C9         -3.5480    1.5130   -2.3810 c3        1 MOL      0.485059
     24 C10        -2.6870    2.7700   -2.0830 c3        1 MOL     -0.402691
     25 C11        -2.8520    0.7790   -3.5210 c3        1 MOL     -0.218825
     26 C12        -2.7430    3.9480   -3.0660 c3        1 MOL     -0.200738
     27 H8         -6.0390    0.1370   -3.8080 hn        1 MOL      0.231964
     28 H9         -4.8820    2.1010   -3.7630 h1        1 MOL      0.030163
     29 H10        -3.5080    0.8090   -1.5460 hc        1 MOL     -0.025712
     30 H11        -1.6480    2.4950   -1.8820 hc        1 MOL      0.153193
     31 H12        -2.9730    3.2150   -1.1360 hc        1 MOL      0.153193
     32 H13        -3.3980   -0.1320   -3.7680 hc        1 MOL      0.026545
     33 H14        -2.8360    1.3490   -4.4570 hc        1 MOL      0.026545
     34 H15        -1.8180    0.5520   -3.2470 hc        1 MOL      0.026545
     35 H16        -3.7730    4.3080   -3.1000 hc        1 MOL      0.049581
     36 H17        -2.1240    4.7550   -2.6770 hc        1 MOL      0.049581
     37 H18        -2.4610    3.7790   -4.0990 hc        1 MOL      0.049581
     38 N3         -5.9740    2.5920   -0.6800 n         1 MOL     -0.006205
     39 C13        -6.7630    3.4770    0.1840 c3        1 MOL     -0.012098
     40 C14        -5.9900    4.7920    0.7060 c         1 MOL      0.598526
     41 O6         -6.5640    5.8600    0.6780 o         1 MOL     -0.578843
     42 C15        -7.4130    2.7500    1.3150 c3        1 MOL     -0.172971
     43 C16        -8.2790    1.5760    0.9640 c         1 MOL      0.696195
     44 O7         -8.9070    1.6340   -0.1080 o         1 MOL     -0.692772
     45 O8         -8.4410    0.6240    1.7600 o         1 MOL     -0.692772
     46 H19        -5.7940    1.6340   -0.4380 hn        1 MOL      0.262662
     47 H20        -7.5650    3.8880   -0.4210 h1        1 MOL      0.050291
     48 H21        -7.9130    3.4070    2.0170 hc        1 MOL      0.048686
     49 H22        -6.6210    2.2540    1.8800 hc        1 MOL      0.048686
     50 N4         -4.6980    4.8970    1.1050 n         1 MOL     -0.583515
     51 C17        -3.8410    3.7530    1.5730 c3        1 MOL      0.125334
     52 C18        -4.3510    3.1420    2.8310 c         1 MOL      0.473031
     53 O9         -5.3250    3.6100    3.4590 o         1 MOL     -0.533683
     54 H23        -4.2320    5.7680    1.3310 hn        1 MOL      0.310746
     55 H24        -2.7950    4.0300    1.7220 h1        1 MOL      0.027765
     56 H25        -3.8460    3.0830    0.7110 h1        1 MOL      0.027765
     57 N5         -3.6490    2.1650    3.4100 n         1 MOL     -0.472722
     58 C19        -2.3960    1.5930    2.8310 c3        1 MOL      0.157434
     59 C20        -2.3720    1.0050    1.4430 c         1 MOL     -0.024881
     60 O10        -3.3800    0.6860    0.8390 o         1 MOL     -0.454634
     61 C21        -1.7710    0.6290    3.8740 c3        1 MOL     -0.415260
     62 C22        -2.7550   -0.4560    4.2150 c         1 MOL      0.796206
     63 O11        -3.1180   -1.3570    3.3980 o         1 MOL     -0.713503
     64 O12        -3.2580   -0.4450    5.3830 o         1 MOL     -0.713503
     65 H26        -4.1020    1.7440    4.2060 hn        1 MOL      0.328404
     66 H27        -1.6170    2.3570    2.9020 h1        1 MOL      0.076219
     67 H28        -1.5090    1.2130    4.7550 hc        1 MOL      0.130352
     68 H29        -0.9370    0.0700    3.4530 hc        1 MOL      0.130352
     69 N6         -1.2270    0.7210    0.7560 n         1 MOL     -0.145861
     70 C23         0.1770    1.1240    0.9700 c3        1 MOL      0.149271
     71 C24         0.5600    2.5710    0.4740 c         1 MOL      0.476618
     72 O13        -0.2470    3.2480   -0.1270 o         1 MOL     -0.485208
     73 H30        -1.3810    0.1870   -0.0940 hn        1 MOL      0.197194
     74 H31         0.8990    0.4500    0.5220 h1        1 MOL      0.001018
     75 H32         0.3810    1.0750    2.0300 h1        1 MOL      0.001018
     76 N7          1.7260    3.0300    0.7030 n         1 MOL     -0.470442
     77 C25         2.2650    4.3190    0.2730 c3        1 MOL      0.034782
     78 C26         2.6660    4.2880   -1.2280 c         1 MOL      0.410842
     79 O14         2.7090    5.3020   -1.8940 o         1 MOL     -0.518892
     80 C27         3.5060    4.5770    1.0870 c3        1 MOL      0.143172
     81 C28         4.0450    6.0230    0.8910 c3        1 MOL     -0.193466
     82 C29         5.1200    6.3360    1.9950 c         1 MOL      0.674615
     83 N8          5.5870    7.5990    1.9920 n         1 MOL     -0.854520
     84 O15         5.5270    5.5300    2.8480 o         1 MOL     -0.537306
     85 H33         2.4130    2.4240    1.1290 hn        1 MOL      0.277112
     86 H34         1.4990    5.0750    0.4450 h1        1 MOL      0.104507
     87 H35         4.2450    3.8200    0.8140 hc        1 MOL     -0.022851
     88 H36         3.3360    4.5140    2.1580 hc        1 MOL     -0.022851
     89 H37         3.2190    6.7190    0.9860 hc        1 MOL      0.053746
     90 H38         4.4020    6.2460   -0.1110 hc        1 MOL      0.053746
     91 H39         5.1960    8.2680    1.3530 hn        1 MOL      0.372917
     92 H40         6.1540    7.8890    2.7860 hn        1 MOL      0.372917
     93 N9          3.0110    3.1190   -1.7790 n         1 MOL     -0.259116
     94 C30         3.3060    2.8640   -3.2060 c3        1 MOL     -0.132203
     95 C31         4.6040    2.0270   -3.3130 c         1 MOL      0.544185
     96 O16         5.0080    1.7890   -4.4550 o         1 MOL     -0.568875
     97 C32         2.1740    2.1270   -4.0210 c3        1 MOL      0.238983
     98 C33         0.9650    2.9760   -4.4180 c3        1 MOL     -0.219467
     99 C34         1.5760    0.8290   -3.2970 c3        1 MOL     -0.219467
    100 H41         2.8220    2.3050   -1.2060 hn        1 MOL      0.248841
    101 H42         3.5810    3.7480   -3.7780 h1        1 MOL      0.121179
    102 H43         2.6480    1.7030   -4.9050 hc        1 MOL     -0.002416
    103 H44         0.4430    3.3830   -3.5520 hc        1 MOL      0.047007
    104 H45         1.3500    3.7220   -5.1110 hc        1 MOL      0.047007
    105 H46         0.2850    2.3880   -5.0280 hc        1 MOL      0.047007
    106 H47         0.7490    1.1060   -2.6550 hc        1 MOL      0.047007
    107 H48         1.0740    0.0990   -3.9380 hc        1 MOL      0.047007
    108 H49         2.3880    0.3130   -2.7880 hc        1 MOL      0.047007
    109 N10         5.2200    1.5700   -2.2250 n         1 MOL     -0.480067
    110 C35         6.5400    0.9310   -2.3560 c3        1 MOL      0.279505
    111 C36         6.5220   -0.5080   -1.7450 c         1 MOL      0.438471
    112 O17         7.3940   -1.3010   -2.1170 o         1 MOL     -0.565003
    113 C37         7.5820    1.7950   -1.6690 c3        1 MOL     -0.399263
    114 C38         7.3230    2.4320   -0.3850 c         1 MOL      0.649412
    115 N11         8.2380    3.1890    0.1200 n         1 MOL     -0.766548
    116 O18         6.2870    2.2730    0.2870 o         1 MOL     -0.525963
    117 H50         4.7670    1.7040   -1.3320 hn        1 MOL      0.273440
    118 H51         6.9030    0.8360   -3.3810 h1        1 MOL      0.053192
    119 H52         7.8570    2.6360   -2.3070 hc        1 MOL      0.126796
    120 H53         8.4700    1.1690   -1.6490 hc        1 MOL      0.126796
    121 H54         9.1640    3.1900   -0.2900 hn        1 MOL      0.364891
    122 H55         8.0820    3.4310    1.0930 hn        1 MOL      0.364891
    123 N12         5.7040   -0.8080   -0.7670 n         1 MOL     -0.414469
    124 C39         5.7960   -1.8740    0.2940 c3        1 MOL      0.455173
    125 C40         4.4350   -2.6470    0.4490 c         1 MOL      0.247302
    126 O19         3.3930   -2.0260    0.2640 o         1 MOL     -0.401837
    127 C41         6.5190   -1.3350    1.5920 c3        1 MOL     -0.182213
    128 C42         7.9650   -0.9280    1.3480 ca        1 MOL      0.072351
    129 C43         8.4180    0.3330    1.8760 ca        1 MOL     -0.160097
    130 C44         8.9460   -1.8340    0.8200 ca        1 MOL     -0.160097
    131 C45         9.8020    0.6520    1.7860 ca        1 MOL     -0.267713
    132 C46        10.2980   -1.3890    0.6280 ca        1 MOL     -0.267713
    133 C47        10.6910   -0.1800    1.1430 ca        1 MOL      0.357998
    134 O20        11.9720    0.1970    0.9290 oh        1 MOL     -0.564987
    135 H56         4.9430   -0.1620   -0.5930 hn        1 MOL      0.175444
    136 H57         6.4090   -2.7040   -0.0470 h1        1 MOL     -0.040004
    137 H58         6.4010   -2.2210    2.2100 hc        1 MOL      0.078914
    138 H59         6.0100   -0.4750    2.0340 hc        1 MOL      0.078914
    139 H60         7.7600    1.0520    2.3580 ha        1 MOL      0.143640
    140 H61         8.6330   -2.8210    0.5130 ha        1 MOL      0.143640
    141 H62        10.0620    1.5660    2.2850 ha        1 MOL      0.132893
    142 H63        11.1170   -1.9420    0.1930 ha        1 MOL      0.132893
    143 H64        12.5250   -0.4240    0.4310 ho        1 MOL      0.392431
    144 N13         4.5040   -3.9020    0.9760 n         1 MOL     -0.463644
    145 C48         3.4260   -4.8890    1.1800 c3        1 MOL      0.049303
    146 C49         2.4500   -5.2010    0.0690 c         1 MOL      0.314266
    147 O21         2.0410   -6.3970    0.0010 o         1 MOL     -0.494123
    148 C50         2.6540   -4.3750    2.4400 c3        1 MOL     -0.047018
    149 C51         3.6610   -4.2670    3.6010 c3        1 MOL     -0.311113
    150 C52         3.1120   -4.3940    4.9860 c         1 MOL      0.708293
    151 O22         3.3280   -5.3790    5.6980 o         1 MOL     -0.715567
    152 O23         2.5870   -3.3270    5.4710 o         1 MOL     -0.715567
    153 H65         5.4450   -4.1950    1.1840 hn        1 MOL      0.306695
    154 H66         3.9510   -5.8010    1.4680 h1        1 MOL      0.078367
    155 H67         1.8650   -5.1040    2.6040 hc        1 MOL      0.111876
    156 H68         2.1140   -3.4400    2.2660 hc        1 MOL      0.111876
    157 H69         4.1570   -3.2960    3.5290 hc        1 MOL      0.049629
    158 H70         4.4210   -5.0450    3.5120 hc        1 MOL      0.049629
    159 N14         2.0620   -4.1990   -0.7660 n         1 MOL     -0.050626
    160 C53         0.9780   -4.4150   -1.7380 c3        1 MOL     -0.320565
    161 C54         1.3450   -5.2360   -3.0380 c         1 MOL      0.471984
    162 O24         0.4550   -5.9220   -3.5520 o         1 MOL     -0.528022
    163 C55         0.3240   -3.1170   -2.1220 c3        1 MOL     -0.070382
    164 C56        -0.2380   -2.1570   -0.9850 c3        1 MOL      0.380547
    165 C57        -1.2630   -2.8730   -0.1320 c         1 MOL      0.556619
    166 O25        -2.2300   -2.1320    0.3170 o         1 MOL     -0.631200
    167 O26        -1.0530   -4.0280    0.3650 o         1 MOL     -0.631200
    168 H71         2.3320   -3.2690   -0.4860 hn        1 MOL      0.138153
    169 H72         0.1270   -4.9110   -1.2550 h1        1 MOL      0.210873
    170 H73        -0.5250   -3.2700   -2.7930 hc        1 MOL      0.021001
    171 H74         0.9270   -2.4930   -2.7780 hc        1 MOL      0.021001
    172 H75        -0.6720   -1.2240   -1.3440 hc        1 MOL     -0.139704
    173 H76         0.5950   -1.8940   -0.3240 hc        1 MOL     -0.139704
    174 N15         2.5860   -5.2870   -3.5160 n         1 MOL     -0.233344
    175 C58         2.9720   -6.0420   -4.7400 c3        1 MOL     -0.063243
    176 H77         3.7710   -6.7420   -4.4970 h1        1 MOL      0.053611
    177 H78         2.1090   -6.5920   -5.1160 h1        1 MOL      0.053611
    178 H79         3.3200   -5.3450   -5.5020 h1        1 MOL      0.053611
    179 H80         3.3140   -4.8640   -2.9460 hn        1 MOL      0.192937
    180 Ca1        -4.4880   -1.7650    1.2140 Ca        1 MOL      1.798606
    181 O27        -6.1920   -0.4130    2.6040 oh        1 MOL     -0.866431
    182 H81        -6.9510    0.0280    2.2300 ho        1 MOL      0.406579
    183 H82        -6.4170   -0.5330    3.5270 ho        1 MOL      0.406579
    184 O28        -5.3860   -3.5060    3.0900 oh        1 MOL     -0.866431
    185 H83        -5.7910   -3.2410    3.9140 ho        1 MOL      0.406579
    186 H84        -5.3730   -4.4610    3.1240 ho        1 MOL      0.406579
    187 O29        -3.4840   -4.4280    1.0450 oh        1 MOL     -0.866431
    188 H85        -2.6560   -4.0880    0.6800 ho        1 MOL      0.406579
    189 H86        -3.4250   -5.3760    0.9330 ho        1 MOL      0.406579
@<TRIPOS>BOND
     1    1    2 1   
     2    1    4 1   
     3    1    5 1   
     4    1    6 1   
     5    2    3 2   
     6    2    7 1   
     7    7    8 1   
     8    7   15 1   
     9    8    9 1   
    10    8   11 1   
    11    8   16 1   
    12    9   10 2   
    13    9   19 1   
    14   11   12 1   
    15   11   17 1   
    16   11   18 1   
    17   12   13 1   
    18   12   14 1   
    19   19   20 1   
    20   19   27 1   
    21   20   21 1   
    22   20   23 1   
    23   20   28 1   
    24   21   22 2   
    25   21   38 1   
    26   23   24 1   
    27   23   25 1   
    28   23   29 1   
    29   24   26 1   
    30   24   30 1   
    31   24   31 1   
    32   25   32 1   
    33   25   33 1   
    34   25   34 1   
    35   26   35 1   
    36   26   36 1   
    37   26   37 1   
    38   38   39 1   
    39   38   46 1   
    40   39   40 1   
    41   39   42 1   
    42   39   47 1   
    43   40   41 2   
    44   40   50 1   
    45   42   43 1   
    46   42   48 1   
    47   42   49 1   
    48   43   44 1   
    49   43   45 1   
    50   50   51 1   
    51   50   54 1   
    52   51   52 1   
    53   51   55 1   
    54   51   56 1   
    55   52   53 2   
    56   52   57 1   
    57   57   58 1   
    58   57   65 1   
    59   58   59 1   
    60   58   61 1   
    61   58   66 1   
    62   59   60 2   
    63   59   69 1   
    64   61   62 1   
    65   61   67 1   
    66   61   68 1   
    67   62   63 1   
    68   62   64 1   
    69   69   70 1   
    70   69   73 1   
    71   70   71 1   
    72   70   74 1   
    73   70   75 1   
    74   71   72 2   
    75   71   76 1   
    76   76   77 1   
    77   76   85 1   
    78   77   78 1   
    79   77   80 1   
    80   77   86 1   
    81   78   79 2   
    82   78   93 1   
    83   80   81 1   
    84   80   87 1   
    85   80   88 1   
    86   81   82 1   
    87   81   89 1   
    88   81   90 1   
    89   82   83 1   
    90   82   84 2   
    91   83   91 1   
    92   83   92 1   
    93   93   94 1   
    94   93  100 1   
    95   94   95 1   
    96   94   97 1   
    97   94  101 1   
    98   95   96 2   
    99   95  109 1   
   100   97   98 1   
   101   97   99 1   
   102   97  102 1   
   103   98  103 1   
   104   98  104 1   
   105   98  105 1   
   106   99  106 1   
   107   99  107 1   
   108   99  108 1   
   109  109  110 1   
   110  109  117 1   
   111  110  111 1   
   112  110  113 1   
   113  110  118 1   
   114  111  112 2   
   115  111  123 1   
   116  113  114 1   
   117  113  119 1   
   118  113  120 1   
   119  114  115 1   
   120  114  116 2   
   121  115  121 1   
   122  115  122 1   
   123  123  124 1   
   124  123  135 1   
   125  124  125 1   
   126  124  127 1   
   127  124  136 1   
   128  125  126 2   
   129  125  144 1   
   130  127  128 1   
   131  127  137 1   
   132  127  138 1   
   133  128  129 ar  
   134  128  130 ar  
   135  129  131 ar  
   136  129  139 1   
   137  130  132 ar  
   138  130  140 1   
   139  131  133 ar  
   140  131  141 1   
   141  132  133 ar  
   142  132  142 1   
   143  133  134 1   
   144  134  143 1   
   145  144  145 1   
   146  144  153 1   
   147  145  146 1   
   148  145  148 1   
   149  145  154 1   
   150  146  147 2   
   151  146  159 1   
   152  148  149 1   
   153  148  155 1   
   154  148  156 1   
   155  149  150 1   
   156  149  157 1   
   157  149  158 1   
   158  150  151 1   
   159  150  152 1   
   160  159  160 1   
   161  159  168 1   
   162  160  161 1   
   163  160  163 1   
   164  160  169 1   
   165  161  162 2   
   166  161  174 1   
   167  163  164 1   
   168  163  170 1   
   169  163  171 1   
   170  164  165 1   
   171  164  172 1   
   172  164  173 1   
   173  165  166 1   
   174  165  167 1   
   175  174  175 1   
   176  174  179 1   
   177  175  176 1   
   178  175  177 1   
   179  175  178 1   
   180  181  182 1   
   181  181  183 1   
   182  184  185 1   
   183  184  186 1   
   184  187  188 1   
   185  187  189 1   
@<TRIPOS>SUBSTRUCTURE
     1 MOL         1 TEMP              0 ****  ****    0 ROOT
