@<TRIPOS>MOLECULE
MOL
  198   191     1     0     0
SMALL
resp


@<TRIPOS>ATOM
      1 C1         -2.3870    3.0520    4.0570 c3        1 MOL     -0.376443
      2 C2         -3.5840    2.1310    3.7970 c         1 MOL      0.723775
      3 O1         -3.6290    0.9020    4.0910 o         1 MOL     -0.611925
      4 H1         -2.3620    3.8370    3.3010 hc        1 MOL      0.099728
      5 H2         -2.4840    3.5040    5.0450 hc        1 MOL      0.099728
      6 H3         -1.4650    2.4730    4.0110 hc        1 MOL      0.099728
      7 N1         -4.5980    2.7590    3.2110 n         1 MOL     -0.570524
      8 C3         -5.9180    2.2110    3.1050 c3        1 MOL      0.170926
      9 C4         -6.0190    0.9040    2.2190 c         1 MOL      0.457662
     10 O2         -5.1320    0.3980    1.5490 o         1 MOL     -0.463018
     11 C5         -6.9060    3.3530    2.7500 c3        1 MOL     -0.379866
     12 C6         -6.6950    3.9260    1.2950 c         1 MOL      0.711871
     13 O3         -7.6700    4.4760    0.6990 o         1 MOL     -0.685027
     14 O4         -5.6230    3.7420    0.6540 o         1 MOL     -0.685027
     15 H4         -4.4990    3.7340    2.9800 hn        1 MOL      0.319291
     16 H5         -6.2850    1.9090    4.0830 h1        1 MOL      0.033875
     17 H6         -6.8530    4.2000    3.4310 hc        1 MOL      0.092700
     18 H7         -7.9130    2.9540    2.9150 hc        1 MOL      0.092700
     19 N2         -7.2070    0.3310    2.1420 n         1 MOL     -0.482469
     20 C7         -7.4590   -0.9170    1.4320 c3        1 MOL      0.073481
     21 C8         -7.3620   -0.9790   -0.1110 c         1 MOL      0.370477
     22 O5         -7.7020   -2.0020   -0.6970 o         1 MOL     -0.497648
     23 C9         -8.7260   -1.5560    2.0800 c3        1 MOL     -0.440120
     24 C10       -10.1040   -1.0170    1.5490 c3        1 MOL      0.117763
     25 C11       -11.1840   -1.9700    2.1510 c3        1 MOL     -0.191497
     26 C12       -12.5890   -1.4310    1.9130 c3        1 MOL      0.154148
     27 N3        -13.7620   -2.2770    2.5080 n4        1 MOL     -0.392526
     28 H8         -7.8930    0.7060    2.7820 hn        1 MOL      0.292269
     29 H9         -6.6160   -1.5190    1.7880 h1        1 MOL      0.120971
     30 H10        -8.6630   -1.4630    3.1630 hc        1 MOL      0.144387
     31 H11        -8.6800   -2.5760    1.6740 hc        1 MOL      0.144387
     32 H12       -10.2230   -1.0060    0.4610 hc        1 MOL      0.060300
     33 H13       -10.3540   -0.0140    1.8840 hc        1 MOL      0.060300
     34 H14       -10.9810   -2.1500    3.2040 hc        1 MOL      0.070401
     35 H15       -11.0510   -2.9090    1.6120 hc        1 MOL      0.070401
     36 H16       -12.7020   -1.1880    0.8610 hx        1 MOL      0.048785
     37 H17       -12.5810   -0.4450    2.3850 hx        1 MOL      0.048785
     38 H18       -13.7430   -3.1860    2.0850 hn        1 MOL      0.287092
     39 H19       -13.6660   -2.3490    3.5020 hn        1 MOL      0.287092
     40 H20       -14.6470   -1.8480    2.2610 hn        1 MOL      0.287092
     41 N4         -6.7870    0.0260   -0.7730 n         1 MOL     -0.151794
     42 C13        -6.6320    0.1270   -2.2520 c3        1 MOL     -0.006715
     43 C14        -5.4460    1.0180   -2.6700 c         1 MOL      0.292784
     44 O6         -5.3580    2.2130   -2.3130 o         1 MOL     -0.521075
     45 C15        -7.9340    0.5920   -3.0140 c3        1 MOL     -0.072300
     46 C16        -8.6440    1.8920   -2.4290 c         1 MOL      0.543573
     47 O7         -9.8860    1.9750   -2.5720 o         1 MOL     -0.659463
     48 O8         -8.0370    2.8930   -1.8840 o         1 MOL     -0.659463
     49 H21        -6.5360    0.8790   -0.2850 hn        1 MOL      0.232695
     50 H22        -6.4090   -0.8810   -2.5920 h1        1 MOL      0.125464
     51 H23        -8.6360   -0.2390   -3.0690 hc        1 MOL      0.043723
     52 H24        -7.7170    0.9040   -4.0280 hc        1 MOL      0.043723
     53 N5         -4.5880    0.6420   -3.5910 n         1 MOL     -0.158601
     54 C17        -4.4710   -0.6290   -4.2460 c3        1 MOL     -0.310326
     55 C18        -4.1400   -1.7390   -3.1970 c         1 MOL      0.530670
     56 O9         -3.5610   -1.5280   -2.1140 o         1 MOL     -0.552290
     57 H25        -3.9900    1.3960   -3.8740 hn        1 MOL      0.246281
     58 H26        -3.5960   -0.5510   -4.8960 h1        1 MOL      0.130335
     59 H27        -5.3160   -0.9900   -4.8360 h1        1 MOL      0.130335
     60 N6         -4.5730   -2.9120   -3.5710 n         1 MOL     -0.197375
     61 C19        -4.4300   -4.1660   -2.7530 c3        1 MOL     -0.083052
     62 C20        -2.9570   -4.6050   -2.3860 c         1 MOL      0.581355
     63 O10        -2.3640   -5.3350   -3.1320 o         1 MOL     -0.449359
     64 C21        -5.1310   -5.3120   -3.3930 c3        1 MOL     -0.189486
     65 C22        -4.9290   -5.4430   -4.9180 c         1 MOL      0.636311
     66 O11        -4.2650   -6.3580   -5.4320 o         1 MOL     -0.619329
     67 O12        -5.4510   -4.5240   -5.6500 o         1 MOL     -0.619329
     68 H28        -5.2430   -2.9550   -4.3180 hn        1 MOL      0.151532
     69 H29        -4.9550   -3.8370   -1.8520 h1        1 MOL      0.035878
     70 H30        -6.2000   -5.1320   -3.2500 hc        1 MOL      0.056845
     71 H31        -4.8940   -6.2440   -2.8670 hc        1 MOL      0.056845
     72 N7         -2.4170   -4.1760   -1.2390 n         1 MOL     -0.438796
     73 C23        -1.0410   -4.3870   -0.8680 c3        1 MOL     -0.217784
     74 C24        -0.6800   -4.0290    0.5550 c         1 MOL      0.680581
     75 O13         0.4210   -4.3890    0.9560 o         1 MOL     -0.587250
     76 H32        -2.9030   -3.4320   -0.7550 hn        1 MOL      0.285748
     77 H33        -0.4060   -3.7880   -1.5340 h1        1 MOL      0.120315
     78 H34        -0.8990   -5.4660   -0.9950 h1        1 MOL      0.120315
     79 N8         -1.5840   -3.4630    1.3480 n         1 MOL     -0.423512
     80 C25        -1.2310   -2.9950    2.7330 c3        1 MOL     -0.065400
     81 C26        -0.3800   -1.7770    2.7830 c         1 MOL      0.489117
     82 O14        -0.7040   -0.9420    1.8880 o         1 MOL     -0.498162
     83 C27        -2.5960   -2.7270    3.5320 c3        1 MOL      0.332932
     84 C28        -3.5580   -4.0410    3.5200 c3        1 MOL     -0.337474
     85 O15        -2.1970   -2.5310    4.8800 oh        1 MOL     -0.597354
     86 H35        -2.5780   -3.4230    1.1220 hn        1 MOL      0.255326
     87 H36        -0.7750   -3.8060    3.2940 h1        1 MOL      0.082636
     88 H37        -2.9990   -1.9210    2.9240 h1        1 MOL      0.071471
     89 H38        -2.8790   -2.0210    5.3340 ho        1 MOL      0.395194
     90 H39        -3.9960   -4.1680    2.5360 hc        1 MOL      0.084384
     91 H40        -3.0360   -4.9430    3.8330 hc        1 MOL      0.084384
     92 H41        -4.3190   -3.9180    4.2890 hc        1 MOL      0.084384
     93 N9          0.7760   -1.6680    3.4690 n         1 MOL     -0.310076
     94 C29         1.5520   -0.4370    3.5660 c3        1 MOL     -0.040766
     95 C30         2.3550   -0.2310    2.3210 c         1 MOL      0.428447
     96 O16         2.4130    0.8880    1.8640 o         1 MOL     -0.504889
     97 C31         2.2760   -0.4240    4.9370 c3        1 MOL      0.170728
     98 C32         1.3790   -0.2560    6.2030 c3        1 MOL     -0.070699
     99 C33         3.2370    0.7460    4.9150 c3        1 MOL     -0.144100
    100 C34         0.1840   -1.1570    6.2970 c3        1 MOL      0.018459
    101 H42         1.0950   -2.4860    3.9870 hn        1 MOL      0.243669
    102 H43         0.8750    0.4200    3.4850 h1        1 MOL      0.113409
    103 H44         2.8900   -1.3160    5.0860 hc        1 MOL      0.000899
    104 H45         0.9590    0.7550    6.2810 hc        1 MOL      0.011898
    105 H46         2.0170   -0.4070    7.0670 hc        1 MOL      0.011898
    106 H47         3.6420    0.8720    5.9170 hc        1 MOL      0.032100
    107 H48         4.0680    0.4960    4.2650 hc        1 MOL      0.032100
    108 H49         2.7290    1.6840    4.6870 hc        1 MOL      0.032100
    109 H50        -0.0870   -1.2340    7.3510 hc        1 MOL     -0.008199
    110 H51        -0.6370   -0.8010    5.6700 hc        1 MOL     -0.008199
    111 H52         0.4060   -2.1920    6.0410 hc        1 MOL     -0.008199
    112 N10         2.9800   -1.3340    1.7890 n         1 MOL     -0.395759
    113 C35         3.9540   -1.1930    0.6540 c3        1 MOL     -0.001800
    114 C36         5.1740   -2.0710    0.9660 c         1 MOL      0.515155
    115 O17         5.0730   -3.0500    1.6890 o         1 MOL     -0.507509
    116 C37         3.3160   -1.6400   -0.6690 c3        1 MOL      0.447135
    117 C38         1.9210   -1.0790   -0.8240 c3        1 MOL     -0.310016
    118 O18         3.9640   -1.2440   -1.8650 oh        1 MOL     -0.627034
    119 H53         2.8270   -2.2710    2.1220 hn        1 MOL      0.240903
    120 H54         4.2370   -0.1380    0.6700 h1        1 MOL      0.112799
    121 H55         3.2170   -2.7230   -0.7500 h1        1 MOL     -0.042416
    122 H56         4.2050   -2.0750   -2.2680 ho        1 MOL      0.370820
    123 H57         2.0170    0.0040   -0.7730 hc        1 MOL      0.094813
    124 H58         1.6680   -1.2340   -1.8720 hc        1 MOL      0.094813
    125 H59         1.1970   -1.4840   -0.1190 hc        1 MOL      0.094813
    126 N11         6.3740   -1.8340    0.3670 n         1 MOL     -0.527689
    127 C39         7.5210   -2.7890    0.3400 c3        1 MOL     -0.012366
    128 C40         8.9390   -2.3050    0.3270 c         1 MOL      0.526269
    129 O19         9.8470   -2.9250    0.9250 o         1 MOL     -0.569247
    130 C41         7.3650   -3.6540   -0.9220 c3        1 MOL      0.321804
    131 C42         8.2940   -4.8550   -1.1920 c3        1 MOL     -0.365434
    132 O20         7.3430   -2.9960   -2.1400 oh        1 MOL     -0.609104
    133 H60         6.3640   -1.0250   -0.2320 hn        1 MOL      0.262292
    134 H61         7.4250   -3.3760    1.2600 h1        1 MOL      0.119167
    135 H62         6.4440   -4.2300   -0.7990 h1        1 MOL      0.017880
    136 H63         6.4820   -3.0200   -2.5570 ho        1 MOL      0.396626
    137 H64         9.2870   -4.5780   -1.5610 hc        1 MOL      0.098580
    138 H65         8.3500   -5.5020   -0.3170 hc        1 MOL      0.098580
    139 H66         7.8410   -5.3330   -2.0580 hc        1 MOL      0.098580
    140 N12         9.1980   -1.2760   -0.4010 n         1 MOL     -0.273368
    141 C43        10.4750   -0.4760   -0.4690 c3        1 MOL     -0.196177
    142 C44        10.0330    0.9380   -0.9600 c         1 MOL      0.566589
    143 O21         9.2490    1.0690   -1.9300 o         1 MOL     -0.510778
    144 C45        11.4330   -1.1520   -1.5380 c3        1 MOL     -0.043877
    145 C46        12.8370   -0.5980   -1.8530 c3        1 MOL     -0.117936
    146 C47        13.8360   -0.6490   -0.7380 c3        1 MOL     -0.061401
    147 C48        15.2450   -0.3180   -1.2090 c3        1 MOL     -0.026586
    148 N13        15.4910    1.0530   -1.6980 n4        1 MOL     -0.162331
    149 H67         8.4050   -1.0050   -0.9640 hn        1 MOL      0.241971
    150 H68        11.0490   -0.4000    0.4570 h1        1 MOL      0.137115
    151 H69        10.9670   -1.2480   -2.5190 hc        1 MOL      0.070895
    152 H70        11.5580   -2.1810   -1.1880 hc        1 MOL      0.070895
    153 H71        12.7230    0.4240   -2.2200 hc        1 MOL      0.058422
    154 H72        13.2730   -1.1070   -2.7120 hc        1 MOL      0.058422
    155 H73        13.8460   -1.6470   -0.3020 hc        1 MOL      0.069752
    156 H74        13.5750   -0.0270    0.1190 hc        1 MOL      0.069752
    157 H75        15.4070   -0.9320   -2.0950 hx        1 MOL      0.059837
    158 H76        15.9280   -0.6600   -0.4310 hx        1 MOL      0.059837
    159 H77        16.4230    1.1700   -2.0780 hn        1 MOL      0.264908
    160 H78        14.7250    1.3510   -2.2770 hn        1 MOL      0.264908
    161 H79        15.4030    1.6550   -0.8890 hn        1 MOL      0.264908
    162 N14        10.3950    1.9780   -0.2250 n         1 MOL     -0.447710
    163 C49         9.8790    3.3570   -0.5370 c3        1 MOL      0.343757
    164 C50         8.4260    3.7190   -0.1050 c         1 MOL      0.376705
    165 O22         7.5510    3.8990   -0.9400 o         1 MOL     -0.515303
    166 C51        10.9420    4.3860   -0.0410 c3        1 MOL     -0.044122
    167 C52        12.1440    4.6390   -0.9280 c3        1 MOL     -0.114396
    168 C53        13.2530    3.5520   -1.0570 c         1 MOL      0.676581
    169 O23        13.7720    3.1980    0.0180 o         1 MOL     -0.706748
    170 O24        13.4500    3.0380   -2.1850 o         1 MOL     -0.706748
    171 H80        11.1050    1.9160    0.4940 hn        1 MOL      0.261744
    172 H81         9.9070    3.5010   -1.6140 h1        1 MOL      0.008219
    173 H82        11.2210    3.9930    0.9430 hc        1 MOL      0.012378
    174 H83        10.3170    5.2580    0.1550 hc        1 MOL      0.012378
    175 H84        12.5970    5.4930   -0.4260 hc        1 MOL      0.025732
    176 H85        11.7720    4.9190   -1.9220 hc        1 MOL      0.025732
    177 N15         7.9730    3.6580    1.1840 n         1 MOL     -0.418301
    178 C54         8.7130    3.2730    2.4130 c3        1 MOL      0.000239
    179 H86         8.7110    2.1880    2.5120 h1        1 MOL      0.041763
    180 H87         9.7410    3.6300    2.3450 h1        1 MOL      0.041763
    181 H88         8.2310    3.7180    3.2830 h1        1 MOL      0.041763
    182 H89         6.9650    3.7870    1.2410 hn        1 MOL      0.309577
    183 Ca1        -6.3330    4.8070   -1.9530 Ca        1 MOL      1.715933
    184 O25        -6.3840    3.7850   -4.5620 oh        1 MOL     -0.839171
    185 H90        -6.9340    3.2520   -5.1370 ho        1 MOL      0.417245
    186 H91        -6.0580    4.4860   -5.1220 ho        1 MOL      0.417245
    187 O26        -5.9080    6.9320   -0.4050 oh        1 MOL     -0.839171
    188 H92        -5.5160    7.1930    0.4330 ho        1 MOL      0.417245
    189 H93        -5.7970    7.6960   -0.9740 ho        1 MOL      0.417245
    190 O27        -3.5660    4.3240   -1.7080 oh        1 MOL     -0.839171
    191 H94        -3.4800    3.4050   -1.9520 ho        1 MOL      0.417245
    192 H95        -2.9170    4.4480   -1.0180 ho        1 MOL      0.417245
    193 O28        -8.1620    6.6410   -2.2180 oh        1 MOL     -0.839171
    194 H96        -8.0890    7.2310   -2.9630 ho        1 MOL      0.417245
    195 H97        -8.5530    7.1760   -1.5260 ho        1 MOL      0.417245
    196 O29        -5.0810    6.3830   -3.4120 oh        1 MOL     -0.839171
    197 H98        -5.2090    7.3110   -3.6220 ho        1 MOL      0.417245
    198 H99        -4.4190    6.0800   -4.0290 ho        1 MOL      0.417245
@<TRIPOS>BOND
     1    1    2 1   
     2    1    4 1   
     3    1    5 1   
     4    1    6 1   
     5    2    3 2   
     6    2    7 1   
     7    7    8 1   
     8    7   15 1   
     9    8    9 1   
    10    8   11 1   
    11    8   16 1   
    12    9   10 2   
    13    9   19 1   
    14   11   12 1   
    15   11   17 1   
    16   11   18 1   
    17   12   13 1   
    18   12   14 1   
    19   19   20 1   
    20   19   28 1   
    21   20   21 1   
    22   20   23 1   
    23   20   29 1   
    24   21   22 2   
    25   21   41 1   
    26   23   24 1   
    27   23   30 1   
    28   23   31 1   
    29   24   25 1   
    30   24   32 1   
    31   24   33 1   
    32   25   26 1   
    33   25   34 1   
    34   25   35 1   
    35   26   27 1   
    36   26   36 1   
    37   26   37 1   
    38   27   38 1   
    39   27   39 1   
    40   27   40 1   
    41   41   42 1   
    42   41   49 1   
    43   42   43 1   
    44   42   45 1   
    45   42   50 1   
    46   43   44 2   
    47   43   53 1   
    48   45   46 1   
    49   45   51 1   
    50   45   52 1   
    51   46   47 1   
    52   46   48 1   
    53   53   54 1   
    54   53   57 1   
    55   54   55 1   
    56   54   58 1   
    57   54   59 1   
    58   55   56 2   
    59   55   60 1   
    60   60   61 1   
    61   60   68 1   
    62   61   62 1   
    63   61   64 1   
    64   61   69 1   
    65   62   63 2   
    66   62   72 1   
    67   64   65 1   
    68   64   70 1   
    69   64   71 1   
    70   65   66 1   
    71   65   67 1   
    72   72   73 1   
    73   72   76 1   
    74   73   74 1   
    75   73   77 1   
    76   73   78 1   
    77   74   75 2   
    78   74   79 1   
    79   79   80 1   
    80   79   86 1   
    81   80   81 1   
    82   80   83 1   
    83   80   87 1   
    84   81   82 2   
    85   81   93 1   
    86   83   84 1   
    87   83   85 1   
    88   83   88 1   
    89   84   90 1   
    90   84   91 1   
    91   84   92 1   
    92   85   89 1   
    93   93   94 1   
    94   93  101 1   
    95   94   95 1   
    96   94   97 1   
    97   94  102 1   
    98   95   96 2   
    99   95  112 1   
   100   97   98 1   
   101   97   99 1   
   102   97  103 1   
   103   98  100 1   
   104   98  104 1   
   105   98  105 1   
   106   99  106 1   
   107   99  107 1   
   108   99  108 1   
   109  100  109 1   
   110  100  110 1   
   111  100  111 1   
   112  112  113 1   
   113  112  119 1   
   114  113  114 1   
   115  113  116 1   
   116  113  120 1   
   117  114  115 2   
   118  114  126 1   
   119  116  117 1   
   120  116  118 1   
   121  116  121 1   
   122  117  123 1   
   123  117  124 1   
   124  117  125 1   
   125  118  122 1   
   126  126  127 1   
   127  126  133 1   
   128  127  128 1   
   129  127  130 1   
   130  127  134 1   
   131  128  129 2   
   132  128  140 1   
   133  130  131 1   
   134  130  132 1   
   135  130  135 1   
   136  131  137 1   
   137  131  138 1   
   138  131  139 1   
   139  132  136 1   
   140  140  141 1   
   141  140  149 1   
   142  141  142 1   
   143  141  144 1   
   144  141  150 1   
   145  142  143 2   
   146  142  162 1   
   147  144  145 1   
   148  144  151 1   
   149  144  152 1   
   150  145  146 1   
   151  145  153 1   
   152  145  154 1   
   153  146  147 1   
   154  146  155 1   
   155  146  156 1   
   156  147  148 1   
   157  147  157 1   
   158  147  158 1   
   159  148  159 1   
   160  148  160 1   
   161  148  161 1   
   162  162  163 1   
   163  162  171 1   
   164  163  164 1   
   165  163  166 1   
   166  163  172 1   
   167  164  165 2   
   168  164  177 1   
   169  166  167 1   
   170  166  173 1   
   171  166  174 1   
   172  167  168 1   
   173  167  175 1   
   174  167  176 1   
   175  168  169 1   
   176  168  170 1   
   177  177  178 1   
   178  177  182 1   
   179  178  179 1   
   180  178  180 1   
   181  178  181 1   
   182  184  185 1   
   183  184  186 1   
   184  187  188 1   
   185  187  189 1   
   186  190  191 1   
   187  190  192 1   
   188  193  194 1   
   189  193  195 1   
   190  196  197 1   
   191  196  198 1   
@<TRIPOS>SUBSTRUCTURE
     1 MOL         1 TEMP              0 ****  ****    0 ROOT
