@<TRIPOS>MOLECULE
MOL
  192   187     1     0     0
SMALL
resp


@<TRIPOS>ATOM
      1 C1          1.1050    9.0410    0.6870 c3        1 MOL     -0.418231
      2 C2         -0.0410    7.8910    0.6550 c         1 MOL      0.589308
      3 O1         -0.6720    7.5920    1.6920 o         1 MOL     -0.557533
      4 H1          1.6950    8.9900   -0.2270 hc        1 MOL      0.110251
      5 H2          0.6350   10.0220    0.7620 hc        1 MOL      0.110251
      6 H3          1.7550    8.8830    1.5470 hc        1 MOL      0.110251
      7 N1         -0.1730    7.1980   -0.4890 n         1 MOL     -0.420836
      8 C3         -0.9780    5.9300   -0.5550 c3        1 MOL      0.016418
      9 C4         -0.1980    4.5860   -0.5940 c         1 MOL      0.562186
     10 O2         -0.8370    3.5460   -0.7700 o         1 MOL     -0.539512
     11 C5         -1.9050    6.0270   -1.7420 c3        1 MOL     -0.279585
     12 C6         -1.2890    6.2430   -3.1010 c         1 MOL      0.777978
     13 O3         -1.4830    5.3850   -4.0190 o         1 MOL     -0.739102
     14 O4         -0.5250    7.2050   -3.2970 o         1 MOL     -0.739102
     15 H4          0.3170    7.4450   -1.3410 hn        1 MOL      0.298436
     16 H5         -1.6610    5.8770    0.2890 h1        1 MOL      0.127805
     17 H6         -2.4310    6.9690   -1.5820 hc        1 MOL      0.082249
     18 H7         -2.6180    5.2130   -1.8460 hc        1 MOL      0.082249
     19 N2          1.1590    4.6250   -0.5380 n         1 MOL     -0.596776
     20 C7          2.0040    3.4300   -0.7750 c3        1 MOL      0.585143
     21 C8          2.8380    3.1820    0.5010 c         1 MOL      0.400461
     22 O5          3.6090    4.0410    0.8540 o         1 MOL     -0.524913
     23 C9          2.8510    3.7210   -2.0230 c3        1 MOL     -0.030998
     24 C10         1.9130    4.2780   -3.1620 c3        1 MOL     -0.041534
     25 C11         2.4560    3.9330   -4.4960 c3        1 MOL      0.184709
     26 C12         1.4570    3.9760   -5.6640 c3        1 MOL     -0.225259
     27 N3          0.7340    5.2990   -5.7820 n4        1 MOL     -0.136066
     28 H8          1.6070    5.5270   -0.4140 hn        1 MOL      0.263963
     29 H9          1.3300    2.5740   -0.8340 h1        1 MOL     -0.050725
     30 H10         3.3340    2.7680   -2.2410 hc        1 MOL      0.000473
     31 H11         3.5420    4.5430   -1.8210 hc        1 MOL      0.000473
     32 H12         1.7660    5.3620   -3.1560 hc        1 MOL      0.022664
     33 H13         0.9220    3.8400   -3.1360 hc        1 MOL      0.022664
     34 H14         2.8650    2.9320   -4.3890 hc        1 MOL     -0.026217
     35 H15         3.3510    4.4880   -4.7950 hc        1 MOL     -0.026217
     36 H16         0.7260    3.1970   -5.4780 hx        1 MOL      0.120972
     37 H17         2.0580    3.8910   -6.5720 hx        1 MOL      0.120972
     38 H18        -0.0540    5.2860   -5.1480 hn        1 MOL      0.253844
     39 H19         1.3160    6.1110   -5.6300 hn        1 MOL      0.253844
     40 H20         0.3950    5.4220   -6.7220 hn        1 MOL      0.253844
     41 N4          2.8710    1.9560    1.1170 n         1 MOL     -0.327469
     42 C13         2.4680    0.6240    0.6540 c3        1 MOL     -0.317145
     43 C14         2.7640    0.3580   -0.8170 c         1 MOL      0.209236
     44 O6          1.8210    0.3950   -1.6520 o         1 MOL     -0.510443
     45 C15         0.9820    0.3740    1.0480 c3        1 MOL      0.341285
     46 C16         0.6710    0.7310    2.5220 c         1 MOL      0.571871
     47 O7         -0.4440    1.2900    2.7660 o         1 MOL     -0.765780
     48 O8          1.3660    0.2310    3.4630 o         1 MOL     -0.765780
     49 H21         3.3070    2.0090    2.0250 hn        1 MOL      0.262864
     50 H22         3.0610   -0.1170    1.2000 h1        1 MOL      0.160913
     51 H23         0.7050   -0.6680    0.9330 hc        1 MOL     -0.010549
     52 H24         0.2980    0.9740    0.4400 hc        1 MOL     -0.010549
     53 N5          4.0450    0.2960   -1.2570 n         1 MOL      0.000172
     54 C17         5.2520    0.2130   -0.4690 c3        1 MOL     -0.196505
     55 C18         6.2550    1.4010   -0.7980 c         1 MOL      0.495375
     56 O9          5.8710    2.3100   -1.5140 o         1 MOL     -0.546512
     57 H25         4.2070    0.3550   -2.2540 hn        1 MOL      0.244071
     58 H26         5.8440   -0.6710   -0.7150 h1        1 MOL      0.088229
     59 H27         5.0910    0.1760    0.6110 h1        1 MOL      0.088229
     60 N6          7.4750    1.4830   -0.2970 n         1 MOL     -0.409125
     61 C19         8.1850    0.4680    0.4340 c3        1 MOL      0.087752
     62 C20         8.3120   -0.9670   -0.1670 c         1 MOL      0.560840
     63 O10         8.3600   -1.1220   -1.4320 o         1 MOL     -0.450842
     64 C21         9.5170    1.0370    0.7720 c3        1 MOL     -0.109755
     65 C22        10.4160    1.6030   -0.3540 c         1 MOL      0.614509
     66 O11        10.6820    2.8260   -0.4220 o         1 MOL     -0.614783
     67 O12        10.6560    0.7580   -1.2490 o         1 MOL     -0.614783
     68 H28         7.9590    2.3570   -0.4680 hn        1 MOL      0.329298
     69 H29         7.6810    0.2840    1.3720 h1        1 MOL     -0.019075
     70 H30        10.0100    0.3060    1.4170 hc        1 MOL      0.003029
     71 H31         9.3500    1.8700    1.4600 hc        1 MOL      0.003029
     72 N7          8.3870   -2.0390    0.6850 n         1 MOL     -0.396837
     73 C23         8.5940   -3.4300    0.1650 c3        1 MOL     -0.336900
     74 C24         7.2850   -4.1030   -0.2100 c         1 MOL      0.499772
     75 O13         7.2630   -5.0610   -0.9680 o         1 MOL     -0.508610
     76 H32         8.2480   -1.9440    1.6750 hn        1 MOL      0.270144
     77 H33         9.0070   -4.0410    0.9530 h1        1 MOL      0.189259
     78 H34         9.3150   -3.4270   -0.6600 h1        1 MOL      0.189259
     79 N8          6.1560   -3.5940    0.3300 n         1 MOL     -0.189909
     80 C25         4.9660   -4.4460    0.5590 c3        1 MOL     -0.397928
     81 C26         3.6520   -3.8410    0.1480 c         1 MOL      0.770912
     82 O14         3.4410   -2.6890    0.5290 o         1 MOL     -0.603382
     83 C27         4.9790   -5.2150    1.9130 c3        1 MOL      0.491289
     84 C28         3.8680   -6.2640    2.0460 c3        1 MOL     -0.248912
     85 O15         4.8810   -4.3550    3.0390 oh        1 MOL     -0.645586
     86 H35         6.2710   -2.7610    0.9000 hn        1 MOL      0.166443
     87 H36         5.0000   -5.2070   -0.2250 h1        1 MOL      0.102074
     88 H37         5.9190   -5.7480    2.0260 h1        1 MOL      0.000827
     89 H38         4.8940   -3.4550    2.7250 ho        1 MOL      0.396164
     90 H39         4.2150   -7.1390    2.5910 hc        1 MOL      0.061594
     91 H40         3.0590   -5.7070    2.5220 hc        1 MOL      0.061594
     92 H41         3.5760   -6.7390    1.1060 hc        1 MOL      0.061594
     93 N9          2.8020   -4.4740   -0.7080 n         1 MOL     -0.508004
     94 C29         1.5690   -3.9210   -1.3150 c3        1 MOL     -0.045807
     95 C30         0.3260   -4.4720   -0.6370 c         1 MOL      0.522411
     96 O16         0.3270   -5.6930   -0.4380 o         1 MOL     -0.538673
     97 C31         1.5000   -4.3550   -2.8800 c3        1 MOL      0.004523
     98 C32         2.6950   -4.0360   -3.7690 c3        1 MOL     -0.056674
     99 C33         0.1500   -3.8980   -3.5760 c3        1 MOL     -0.365036
    100 C34         3.0720   -2.5290   -3.9430 c3        1 MOL     -0.174335
    101 H42         3.0990   -5.3980   -0.9940 hn        1 MOL      0.316620
    102 H43         1.5170   -2.8310   -1.2780 h1        1 MOL      0.163620
    103 H44         1.5480   -5.4430   -2.8420 hc        1 MOL      0.038096
    104 H45         2.6590   -4.4680   -4.7700 hc        1 MOL      0.054586
    105 H46         3.5560   -4.5850   -3.3860 hc        1 MOL      0.054586
    106 H47         0.1190   -2.8530   -3.8710 hc        1 MOL      0.112124
    107 H48         0.0060   -4.5280   -4.4550 hc        1 MOL      0.112124
    108 H49        -0.7220   -4.0780   -2.9370 hc        1 MOL      0.112124
    109 H50         2.3240   -1.9250   -4.4480 hc        1 MOL      0.047185
    110 H51         3.2960   -2.0430   -2.9900 hc        1 MOL      0.047185
    111 H52         4.0010   -2.5780   -4.5150 hc        1 MOL      0.047185
    112 N10        -0.6660   -3.6330   -0.2890 n         1 MOL     -0.205769
    113 C35        -1.8530   -4.0180    0.3960 c3        1 MOL     -0.202879
    114 C36        -3.1450   -3.7230   -0.3820 c         1 MOL      0.420256
    115 O17        -4.2030   -4.1700    0.1040 o         1 MOL     -0.485759
    116 C37        -1.9910   -3.1970    1.6900 c3        1 MOL      0.317146
    117 C38        -2.3550   -1.6640    1.5340 c3        1 MOL      0.116866
    118 O18        -0.7560   -3.1310    2.4410 oh        1 MOL     -0.674457
    119 H53        -0.6340   -2.6410   -0.4710 hn        1 MOL      0.166931
    120 H54        -1.7700   -5.0650    0.6780 h1        1 MOL      0.147670
    121 H55        -2.7010   -3.6560    2.3840 h1        1 MOL      0.016774
    122 H56        -0.5480   -4.0230    2.7180 ho        1 MOL      0.411575
    123 H57        -2.5680   -1.2350    2.5150 hc        1 MOL     -0.045738
    124 H58        -1.5690   -1.1090    1.0320 hc        1 MOL     -0.045738
    125 H59        -3.2880   -1.6710    0.9720 hc        1 MOL     -0.045738
    126 N11        -3.1760   -3.1050   -1.5720 n         1 MOL     -0.094827
    127 C39        -4.2560   -2.7720   -2.5020 c3        1 MOL     -0.401064
    128 C40        -5.6380   -2.6250   -1.8890 c         1 MOL      0.727965
    129 O19        -6.4040   -3.5470   -1.9370 o         1 MOL     -0.521367
    130 C41        -4.3480   -3.5970   -3.7880 c3        1 MOL      0.376593
    131 C42        -4.2680   -5.0570   -3.5370 c3        1 MOL     -0.332699
    132 O20        -3.2340   -3.1990   -4.5650 oh        1 MOL     -0.642441
    133 H60        -2.3420   -2.5800   -1.8090 hn        1 MOL      0.247353
    134 H61        -3.9210   -1.8120   -2.8980 h1        1 MOL      0.134646
    135 H62        -5.2730   -3.3590   -4.3170 h1        1 MOL     -0.003273
    136 H63        -3.4180   -3.4280   -5.4710 ho        1 MOL      0.407787
    137 H64        -5.0960   -5.4200   -2.9350 hc        1 MOL      0.089530
    138 H65        -4.3960   -5.5430   -4.5090 hc        1 MOL      0.089530
    139 H66        -3.2760   -5.2630   -3.1320 hc        1 MOL      0.089530
    140 N12        -5.9880   -1.4180   -1.4410 n         1 MOL     -0.570044
    141 C43        -7.3580   -1.1720   -0.9660 c3        1 MOL     -0.019297
    142 C44        -7.4490   -0.4260    0.3910 c         1 MOL      0.689576
    143 O21        -8.3410   -0.7100    1.1330 o         1 MOL     -0.587766
    144 C45        -8.1800   -0.6420   -2.1710 c3        1 MOL     -0.143114
    145 C46        -9.7340   -0.6030   -1.9660 c3        1 MOL     -0.054017
    146 C47       -10.3970   -1.9790   -1.6560 c3        1 MOL     -0.225228
    147 C48       -10.1070   -3.0800   -2.6390 c3        1 MOL      0.108700
    148 N13       -11.0140   -3.1670   -3.8290 n4        1 MOL     -0.392165
    149 H67        -5.3820   -0.6170   -1.5580 hn        1 MOL      0.320525
    150 H68        -7.8060   -2.1410   -0.7620 h1        1 MOL      0.110953
    151 H69        -8.1440   -1.3990   -2.9420 hc        1 MOL      0.067476
    152 H70        -7.7790    0.2960   -2.5610 hc        1 MOL      0.067476
    153 H71       -10.1170   -0.2830   -2.9330 hc        1 MOL      0.043826
    154 H72       -10.1140    0.0880   -1.2130 hc        1 MOL      0.043826
    155 H73       -11.4800   -1.9030   -1.5890 hc        1 MOL      0.108740
    156 H74       -10.1520   -2.2190   -0.6220 hc        1 MOL      0.108740
    157 H75       -10.2240   -3.9360   -1.9670 hx        1 MOL      0.078713
    158 H76        -9.0450   -3.1060   -2.8770 hx        1 MOL      0.078713
    159 H77       -10.8580   -3.9540   -4.4410 hn        1 MOL      0.285473
    160 H78       -11.9920   -3.1930   -3.6080 hn        1 MOL      0.285473
    161 H79       -10.7720   -2.3330   -4.3530 hn        1 MOL      0.285473
    162 N14        -6.4970    0.4150    0.7710 n         1 MOL     -0.324921
    163 C49        -6.4360    1.0980    2.0990 c3        1 MOL     -0.476110
    164 C50        -7.3590    2.3150    2.0700 c         1 MOL      0.534778
    165 O22        -7.1450    3.2600    1.3130 o         1 MOL     -0.503886
    166 C51        -4.9580    1.2100    2.4840 c3        1 MOL      0.344254
    167 C52        -4.7690    1.5770    3.9730 c3        1 MOL     -0.140453
    168 C53        -3.3590    1.2030    4.4770 c         1 MOL      0.877289
    169 O23        -2.5480    2.1100    4.8460 o         1 MOL     -0.817506
    170 O24        -3.0340    0.0210    4.5700 o         1 MOL     -0.817506
    171 H80        -5.7600    0.5420    0.0840 hn        1 MOL      0.263666
    172 H81        -6.7810    0.3870    2.8510 h1        1 MOL      0.171031
    173 H82        -4.5090    1.9980    1.8670 hc        1 MOL      0.004757
    174 H83        -4.5040    0.3110    2.0660 hc        1 MOL      0.004757
    175 H84        -5.5900    1.1070    4.5190 hc        1 MOL      0.004095
    176 H85        -4.9510    2.6440    4.0710 hc        1 MOL      0.004095
    177 N15        -8.4070    2.3240    2.8950 n         1 MOL     -0.231236
    178 C54        -9.3870    3.4130    2.9140 c3        1 MOL     -0.221348
    179 H86       -10.1180    3.2290    3.7010 h1        1 MOL      0.105406
    180 H87        -8.8780    4.3580    3.1060 h1        1 MOL      0.105406
    181 H88        -9.8940    3.4630    1.9510 h1        1 MOL      0.105406
    182 H89        -8.6030    1.5430    3.5080 hn        1 MOL      0.254672
    183 Ca1        -0.3900    0.6070    5.3580 Ca        1 MOL      1.706994
    184 O25         1.9240   -0.3120    6.3360 oh        1 MOL     -0.815216
    185 H90         2.3310   -0.9120    5.7000 ho        1 MOL      0.412408
    186 H91         2.6630    0.1920    6.6870 ho        1 MOL      0.412408
    187 O26        -0.9130   -0.3450    7.8330 oh        1 MOL     -0.815216
    188 H92        -0.3990   -0.7070    8.5510 ho        1 MOL      0.412408
    189 H93        -1.3900    0.3830    8.2270 ho        1 MOL      0.412408
    190 O27        -0.4140   -1.8790    4.6880 oh        1 MOL     -0.815216
    191 H94        -0.7580   -2.2150    3.8520 ho        1 MOL      0.412408
    192 H95         0.3080   -2.4670    4.8990 ho        1 MOL      0.412408
@<TRIPOS>BOND
     1    1    2 1   
     2    1    4 1   
     3    1    5 1   
     4    1    6 1   
     5    2    3 2   
     6    2    7 1   
     7    7    8 1   
     8    7   15 1   
     9    8    9 1   
    10    8   11 1   
    11    8   16 1   
    12    9   10 2   
    13    9   19 1   
    14   11   12 1   
    15   11   17 1   
    16   11   18 1   
    17   12   13 1   
    18   12   14 1   
    19   19   20 1   
    20   19   28 1   
    21   20   21 1   
    22   20   23 1   
    23   20   29 1   
    24   21   22 2   
    25   21   41 1   
    26   23   24 1   
    27   23   30 1   
    28   23   31 1   
    29   24   25 1   
    30   24   32 1   
    31   24   33 1   
    32   25   26 1   
    33   25   34 1   
    34   25   35 1   
    35   26   27 1   
    36   26   36 1   
    37   26   37 1   
    38   27   38 1   
    39   27   39 1   
    40   27   40 1   
    41   41   42 1   
    42   41   49 1   
    43   42   43 1   
    44   42   45 1   
    45   42   50 1   
    46   43   44 2   
    47   43   53 1   
    48   45   46 1   
    49   45   51 1   
    50   45   52 1   
    51   46   47 1   
    52   46   48 1   
    53   53   54 1   
    54   53   57 1   
    55   54   55 1   
    56   54   58 1   
    57   54   59 1   
    58   55   56 2   
    59   55   60 1   
    60   60   61 1   
    61   60   68 1   
    62   61   62 1   
    63   61   64 1   
    64   61   69 1   
    65   62   63 2   
    66   62   72 1   
    67   64   65 1   
    68   64   70 1   
    69   64   71 1   
    70   65   66 1   
    71   65   67 1   
    72   72   73 1   
    73   72   76 1   
    74   73   74 1   
    75   73   77 1   
    76   73   78 1   
    77   74   75 2   
    78   74   79 1   
    79   79   80 1   
    80   79   86 1   
    81   80   81 1   
    82   80   83 1   
    83   80   87 1   
    84   81   82 2   
    85   81   93 1   
    86   83   84 1   
    87   83   85 1   
    88   83   88 1   
    89   84   90 1   
    90   84   91 1   
    91   84   92 1   
    92   85   89 1   
    93   93   94 1   
    94   93  101 1   
    95   94   95 1   
    96   94   97 1   
    97   94  102 1   
    98   95   96 2   
    99   95  112 1   
   100   97   98 1   
   101   97   99 1   
   102   97  103 1   
   103   98  100 1   
   104   98  104 1   
   105   98  105 1   
   106   99  106 1   
   107   99  107 1   
   108   99  108 1   
   109  100  109 1   
   110  100  110 1   
   111  100  111 1   
   112  112  113 1   
   113  112  119 1   
   114  113  114 1   
   115  113  116 1   
   116  113  120 1   
   117  114  115 2   
   118  114  126 1   
   119  116  117 1   
   120  116  118 1   
   121  116  121 1   
   122  117  123 1   
   123  117  124 1   
   124  117  125 1   
   125  118  122 1   
   126  126  127 1   
   127  126  133 1   
   128  127  128 1   
   129  127  130 1   
   130  127  134 1   
   131  128  129 2   
   132  128  140 1   
   133  130  131 1   
   134  130  132 1   
   135  130  135 1   
   136  131  137 1   
   137  131  138 1   
   138  131  139 1   
   139  132  136 1   
   140  140  141 1   
   141  140  149 1   
   142  141  142 1   
   143  141  144 1   
   144  141  150 1   
   145  142  143 2   
   146  142  162 1   
   147  144  145 1   
   148  144  151 1   
   149  144  152 1   
   150  145  146 1   
   151  145  153 1   
   152  145  154 1   
   153  146  147 1   
   154  146  155 1   
   155  146  156 1   
   156  147  148 1   
   157  147  157 1   
   158  147  158 1   
   159  148  159 1   
   160  148  160 1   
   161  148  161 1   
   162  162  163 1   
   163  162  171 1   
   164  163  164 1   
   165  163  166 1   
   166  163  172 1   
   167  164  165 2   
   168  164  177 1   
   169  166  167 1   
   170  166  173 1   
   171  166  174 1   
   172  167  168 1   
   173  167  175 1   
   174  167  176 1   
   175  168  169 1   
   176  168  170 1   
   177  177  178 1   
   178  177  182 1   
   179  178  179 1   
   180  178  180 1   
   181  178  181 1   
   182  184  185 1   
   183  184  186 1   
   184  187  188 1   
   185  187  189 1   
   186  190  191 1   
   187  190  192 1   
@<TRIPOS>SUBSTRUCTURE
     1 MOL         1 TEMP              0 ****  ****    0 ROOT
