@<TRIPOS>MOLECULE
MOL
  198   191     1     0     0
SMALL
resp


@<TRIPOS>ATOM
      1 C1          8.4720    7.0200   -3.2780 c3        1 MOL     -0.404959
      2 C2          8.6800    5.6070   -2.6870 c         1 MOL      0.734221
      3 O1          8.7230    4.5900   -3.3630 o         1 MOL     -0.545688
      4 H1          8.9230    7.7600   -2.6160 hc        1 MOL      0.092630
      5 H2          8.9430    7.0770   -4.2590 hc        1 MOL      0.092630
      6 H3          7.4050    7.2210   -3.3730 hc        1 MOL      0.092630
      7 N1          8.5520    5.5790   -1.2990 n         1 MOL     -0.603185
      8 C3          8.5030    4.2980   -0.4740 c3        1 MOL     -0.026336
      9 C4          7.5690    4.4570    0.6910 c         1 MOL      0.576206
     10 O2          7.7880    5.4000    1.4860 o         1 MOL     -0.513858
     11 C5          9.9420    4.1270    0.0510 c3        1 MOL     -0.117366
     12 C6         10.2550    2.7530    0.7230 c         1 MOL      0.631601
     13 O3          9.3530    1.8750    0.6760 o         1 MOL     -0.650182
     14 O4         11.3920    2.5700    1.2340 o         1 MOL     -0.650182
     15 H4          8.6290    6.4590   -0.8170 hn        1 MOL      0.300812
     16 H5          8.0860    3.4560   -1.0250 h1        1 MOL      0.079905
     17 H6         10.1740    4.9440    0.7290 hc        1 MOL      0.051029
     18 H7         10.7050    4.2680   -0.7170 hc        1 MOL      0.051029
     19 N2          6.4790    3.6490    0.7750 n         1 MOL     -0.460117
     20 C7          5.3470    3.9660    1.6590 c3        1 MOL      0.077825
     21 C8          5.3460    2.9470    2.8630 c         1 MOL      0.610156
     22 O5          5.2540    3.5300    3.9960 o         1 MOL     -0.607321
     23 C9          4.0410    3.9140    0.8390 c3        1 MOL     -0.081573
     24 C10         4.0340    5.0240   -0.2490 c3        1 MOL     -0.005285
     25 C11         3.8460    6.4840    0.2770 c3        1 MOL     -0.096855
     26 C12         3.9760    7.5330   -0.7960 c3        1 MOL     -0.061703
     27 N3          2.7060    7.7930   -1.4880 n4        1 MOL     -0.249745
     28 H8          6.3900    2.9070    0.0910 hn        1 MOL      0.272818
     29 H9          5.5380    4.9710    2.0290 h1        1 MOL      0.050741
     30 H10         3.2080    3.7780    1.5310 hc        1 MOL      0.042068
     31 H11         4.0570    2.9400    0.3510 hc        1 MOL      0.042068
     32 H12         3.1750    4.8060   -0.8710 hc        1 MOL      0.022042
     33 H13         4.8510    5.0160   -0.9600 hc        1 MOL      0.022042
     34 H14         4.6290    6.6300    1.0230 hc        1 MOL      0.071245
     35 H15         2.9110    6.5760    0.8320 hc        1 MOL      0.071245
     36 H16         4.7420    7.1720   -1.4850 hx        1 MOL      0.116262
     37 H17         4.3640    8.4030   -0.2670 hx        1 MOL      0.116262
     38 H18         2.0520    8.3590   -0.9570 hn        1 MOL      0.270029
     39 H19         2.8210    8.3990   -2.2850 hn        1 MOL      0.270029
     40 H20         2.2740    6.9030   -1.7030 hn        1 MOL      0.270029
     41 N4          5.4260    1.6790    2.7670 n         1 MOL     -0.389170
     42 C13         5.2080    0.7400    1.6990 c3        1 MOL     -0.294422
     43 C14         6.1410   -0.4910    1.9390 c         1 MOL      0.614990
     44 O6          5.9550   -1.1850    2.9730 o         1 MOL     -0.537412
     45 C15         3.7990    0.2940    1.4910 c3        1 MOL      0.015550
     46 C16         3.8470   -0.6390    0.2690 c         1 MOL      0.469793
     47 O7          3.9500   -0.2210   -0.8920 o         1 MOL     -0.622631
     48 O8          3.8700   -1.8670    0.5570 o         1 MOL     -0.622631
     49 H21         5.5590    1.2040    3.6520 hn        1 MOL      0.303584
     50 H22         5.6100    1.1630    0.7740 h1        1 MOL      0.141870
     51 H23         3.0600    1.0890    1.4420 hc        1 MOL      0.004722
     52 H24         3.5100   -0.2610    2.3770 hc        1 MOL      0.004722
     53 N5          7.0880   -0.6720    1.0550 n         1 MOL     -0.363070
     54 C17         8.0410   -1.8190    1.2960 c3        1 MOL     -0.006634
     55 C18         7.6590   -2.9710    0.3830 c         1 MOL      0.429292
     56 O9          8.4670   -3.6380   -0.2150 o         1 MOL     -0.522360
     57 H25         7.2600   -0.0520    0.2880 hn        1 MOL      0.312621
     58 H26         8.1460   -2.0370    2.3550 h1        1 MOL      0.099055
     59 H27         9.0550   -1.5970    0.9710 h1        1 MOL      0.099055
     60 N6          6.3580   -3.2790    0.2370 n         1 MOL     -0.151871
     61 C19         5.7710   -4.3000   -0.6340 c3        1 MOL      0.338470
     62 C20         6.3910   -4.3500   -2.0400 c         1 MOL      0.476686
     63 O10         7.0600   -5.3550   -2.3020 o         1 MOL     -0.552781
     64 C21         5.8950   -5.6070    0.1570 c3        1 MOL     -0.282180
     65 C22         5.1640   -5.7210    1.5220 c         1 MOL      0.531685
     66 O11         5.4260   -6.7420    2.2290 o         1 MOL     -0.640428
     67 O12         4.3240   -4.8250    1.8750 o         1 MOL     -0.640428
     68 H28         5.6960   -2.6120    0.6030 hn        1 MOL      0.060874
     69 H29         4.7030   -4.1490   -0.7990 h1        1 MOL     -0.134978
     70 H30         6.9500   -5.8260    0.3160 hc        1 MOL      0.085068
     71 H31         5.6170   -6.4590   -0.4700 hc        1 MOL      0.085068
     72 N7          6.2330   -3.3020   -2.8230 n         1 MOL     -0.427730
     73 C23         5.3130   -2.2220   -2.7200 c3        1 MOL     -0.052872
     74 C24         3.9370   -2.7140   -3.2330 c         1 MOL      0.454936
     75 O13         3.7670   -3.1320   -4.3710 o         1 MOL     -0.547987
     76 H32         6.7560   -3.4360   -3.6810 hn        1 MOL      0.288628
     77 H33         5.6580   -1.3650   -3.3030 h1        1 MOL      0.105567
     78 H34         5.2240   -1.9440   -1.6730 h1        1 MOL      0.105567
     79 N8          3.0230   -2.6190   -2.2930 n         1 MOL     -0.215875
     80 C25         1.6230   -3.0480   -2.4030 c3        1 MOL     -0.074839
     81 C26         0.6680   -2.1650   -1.5860 c         1 MOL      0.571524
     82 O14         0.7560   -2.2280   -0.3640 o         1 MOL     -0.448719
     83 C27         1.4690   -4.5980   -1.9950 c3        1 MOL      0.284390
     84 C28         0.0060   -5.0080   -2.0970 c3        1 MOL     -0.414384
     85 O15         1.8870   -4.8530   -0.6580 oh        1 MOL     -0.544518
     86 H35         3.3260   -2.4210   -1.3490 hn        1 MOL      0.187235
     87 H36         1.2700   -3.0140   -3.4360 h1        1 MOL      0.039045
     88 H37         2.1110   -5.1300   -2.6990 h1        1 MOL      0.064860
     89 H38         2.0410   -5.7970   -0.5920 ho        1 MOL      0.363915
     90 H39        -0.3210   -4.7390   -3.1010 hc        1 MOL      0.100585
     91 H40         0.0240   -6.1010   -2.1290 hc        1 MOL      0.100585
     92 H41        -0.7510   -4.6050   -1.4330 hc        1 MOL      0.100585
     93 N9         -0.0970   -1.3190   -2.2940 n         1 MOL     -0.557914
     94 C29        -1.2680   -0.5940   -1.6670 c3        1 MOL     -0.035699
     95 C30        -2.3490   -1.5210   -1.0040 c         1 MOL      0.486332
     96 O16        -2.0250   -2.5230   -0.3790 o         1 MOL     -0.464417
     97 C31        -0.6680    0.6070   -0.8130 c3        1 MOL      0.406410
     98 C32         0.4240    1.4550   -1.4340 c3        1 MOL      0.034033
     99 C33        -1.7290    1.4790   -0.2080 c3        1 MOL     -0.121115
    100 C34         0.0060    2.2120   -2.6880 c3        1 MOL     -0.438103
    101 H42        -0.0150   -1.3220   -3.2990 hn        1 MOL      0.358240
    102 H43        -1.8080   -0.1680   -2.5090 h1        1 MOL      0.027296
    103 H44        -0.2020    0.1820    0.0650 hc        1 MOL     -0.086931
    104 H45         1.2670    0.7990   -1.6230 hc        1 MOL      0.033290
    105 H46         0.7610    2.1660   -0.6720 hc        1 MOL      0.033290
    106 H47        -1.2580    2.3000    0.3370 hc        1 MOL      0.007488
    107 H48        -2.4670    1.8190   -0.9220 hc        1 MOL      0.007488
    108 H49        -2.3480    0.9060    0.4800 hc        1 MOL      0.007488
    109 H50         0.8420    2.7990   -3.0830 hc        1 MOL      0.098962
    110 H51        -0.2000    1.5850   -3.5570 hc        1 MOL      0.098962
    111 H52        -0.8280    2.9000   -2.5810 hc        1 MOL      0.098962
    112 N10        -3.6690   -1.0880   -1.0090 n         1 MOL     -0.131212
    113 C35        -4.8260   -1.8960   -0.4280 c3        1 MOL     -0.640874
    114 C36        -6.1300   -1.5820   -1.1470 c         1 MOL      0.784299
    115 O17        -6.3550   -0.4560   -1.6170 o         1 MOL     -0.551630
    116 C37        -4.9090   -1.9010    1.1370 c3        1 MOL      0.846297
    117 C38        -5.1990   -0.4920    1.6340 c3        1 MOL     -0.375411
    118 O18        -3.8560   -2.5000    1.8500 oh        1 MOL     -0.787671
    119 H53        -3.9330   -0.3090   -1.5930 hn        1 MOL      0.192251
    120 H54        -4.5710   -2.8940   -0.7820 h1        1 MOL      0.170115
    121 H55        -5.8010   -2.4480    1.4380 h1        1 MOL     -0.127871
    122 H56        -4.1860   -2.8380    2.6850 ho        1 MOL      0.430456
    123 H57        -5.2440   -0.5400    2.7300 hc        1 MOL      0.086140
    124 H58        -4.3700    0.1560    1.3460 hc        1 MOL      0.086140
    125 H59        -6.0900   -0.0940    1.1580 hc        1 MOL      0.086140
    126 N11        -7.0310   -2.5300   -1.2320 n         1 MOL     -0.503210
    127 C39        -8.4750   -2.3070   -1.6560 c3        1 MOL     -0.031974
    128 C40        -9.1950   -1.3240   -0.7420 c         1 MOL      0.262959
    129 O19        -8.9690   -1.3730    0.4580 o         1 MOL     -0.440277
    130 C41        -9.2210   -3.6270   -1.6440 c3        1 MOL      0.364191
    131 C42       -10.7680   -3.5470   -1.8210 c3        1 MOL     -0.204964
    132 O20        -8.7740   -4.4430   -2.7090 oh        1 MOL     -0.647431
    133 H60        -6.8740   -3.4580   -0.8540 hn        1 MOL      0.335716
    134 H61        -8.5660   -1.8570   -2.6470 h1        1 MOL      0.083166
    135 H62        -9.0780   -4.1640   -0.7040 h1        1 MOL      0.061952
    136 H63        -9.3440   -4.3500   -3.4700 ho        1 MOL      0.410518
    137 H64       -11.2150   -3.5380   -0.8360 hc        1 MOL      0.051571
    138 H65       -11.1210   -2.6680   -2.3720 hc        1 MOL      0.051571
    139 H66       -11.1340   -4.4280   -2.3520 hc        1 MOL      0.051571
    140 N12       -10.0430   -0.4260   -1.2760 n         1 MOL     -0.255164
    141 C43       -10.7700    0.6030   -0.5530 c3        1 MOL     -0.073100
    142 C44        -9.7420    1.5030    0.2740 c         1 MOL      0.527286
    143 O21        -9.9300    1.7510    1.4190 o         1 MOL     -0.541508
    144 C45       -11.8250   -0.0280    0.3690 c3        1 MOL     -0.254766
    145 C46       -12.9530    0.9010    0.6090 c3        1 MOL      0.041880
    146 C47       -13.8000    0.6320    1.8650 c3        1 MOL     -0.135327
    147 C48       -12.8470    0.6540    3.1260 c3        1 MOL      0.005036
    148 N13       -11.9760    1.8170    3.3050 n4        1 MOL     -0.298994
    149 H67       -10.1210   -0.3190   -2.2800 hn        1 MOL      0.272582
    150 H68       -11.2380    1.2790   -1.2830 h1        1 MOL      0.086051
    151 H69       -11.3390   -0.2880    1.3050 hc        1 MOL      0.141114
    152 H70       -12.3070   -0.8980   -0.0680 hc        1 MOL      0.141114
    153 H71       -13.6750    0.9670   -0.2000 hc        1 MOL      0.024215
    154 H72       -12.5350    1.9110    0.6480 hc        1 MOL      0.024215
    155 H73       -14.3460   -0.3040    1.7540 hc        1 MOL      0.078249
    156 H74       -14.4960    1.4320    2.1080 hc        1 MOL      0.078249
    157 H75       -12.2750   -0.2810    3.0810 hx        1 MOL      0.070151
    158 H76       -13.5340    0.6690    3.9650 hx        1 MOL      0.070151
    159 H77       -12.5340    2.6230    3.0940 hn        1 MOL      0.313325
    160 H78       -11.6260    1.8920    4.2510 hn        1 MOL      0.313325
    161 H79       -11.2240    1.7630    2.6450 hn        1 MOL      0.313325
    162 N14        -8.5850    1.8350   -0.3210 n         1 MOL     -0.365686
    163 C49        -7.5250    2.6660    0.2340 c3        1 MOL      0.013017
    164 C50        -6.2370    2.5430   -0.5650 c         1 MOL      0.483470
    165 O22        -5.2150    2.2260    0.0390 o         1 MOL     -0.539235
    166 C51        -8.0800    4.1240    0.2580 c3        1 MOL      0.088364
    167 C52        -6.9930    5.0910    0.7370 c3        1 MOL     -0.230754
    168 C53        -7.5090    6.5070    0.8210 c         1 MOL      0.751039
    169 O23        -7.4740    7.2890   -0.1430 o         1 MOL     -0.724384
    170 O24        -8.0880    6.8650    1.8490 o         1 MOL     -0.724384
    171 H80        -8.2990    1.5180   -1.2430 hn        1 MOL      0.239415
    172 H81        -7.3970    2.2850    1.2480 h1        1 MOL      0.115761
    173 H82        -8.9460    4.2440    0.9120 hc        1 MOL     -0.005931
    174 H83        -8.3980    4.3930   -0.7480 hc        1 MOL     -0.005931
    175 H84        -6.0700    5.1160    0.1530 hc        1 MOL      0.024764
    176 H85        -6.7780    4.7470    1.7490 hc        1 MOL      0.024764
    177 N15        -6.2430    2.6500   -1.9060 n         1 MOL     -0.353657
    178 C54        -7.1560    3.2830   -2.9540 c3        1 MOL     -0.116403
    179 H86        -8.1490    2.8390   -2.8850 h1        1 MOL      0.088177
    180 H87        -7.2250    4.3560   -2.7770 h1        1 MOL      0.088177
    181 H88        -6.7480    3.1030   -3.9480 h1        1 MOL      0.088177
    182 H89        -5.3440    2.3270   -2.2460 hn        1 MOL      0.291881
    183 Ca1         2.1040   -3.5790    1.7070 Ca        1 MOL      1.673404
    184 O25         1.6920   -6.3930    1.7520 oh        1 MOL     -0.838792
    185 H90         1.3260   -7.0650    1.1640 ho        1 MOL      0.413611
    186 H91         2.4230   -6.8280    2.1780 ho        1 MOL      0.413611
    187 O26         0.8350   -4.1770    3.9470 oh        1 MOL     -0.838792
    188 H92         0.5970   -5.0220    4.3170 ho        1 MOL      0.413611
    189 H93         0.5100   -3.5320    4.5680 ho        1 MOL      0.413611
    190 O27         3.6920   -2.5110    3.6040 oh        1 MOL     -0.838792
    191 H94         3.2210   -1.9750    4.2460 ho        1 MOL      0.413611
    192 H95         4.4210   -1.9600    3.3180 ho        1 MOL      0.413611
    193 O28        -0.6420   -4.0660    1.2110 oh        1 MOL     -0.838792
    194 H96        -1.2290   -3.6410    0.5840 ho        1 MOL      0.413611
    195 H97        -1.1450   -4.0740    2.0280 ho        1 MOL      0.413611
    196 O29         0.8900   -1.1710    2.4790 oh        1 MOL     -0.838792
    197 H98         1.0850   -0.7410    3.3160 ho        1 MOL      0.413611
    198 H99        -0.0550   -1.0360    2.3520 ho        1 MOL      0.413611
@<TRIPOS>BOND
     1    1    2 1   
     2    1    4 1   
     3    1    5 1   
     4    1    6 1   
     5    2    3 2   
     6    2    7 1   
     7    7    8 1   
     8    7   15 1   
     9    8    9 1   
    10    8   11 1   
    11    8   16 1   
    12    9   10 2   
    13    9   19 1   
    14   11   12 1   
    15   11   17 1   
    16   11   18 1   
    17   12   13 1   
    18   12   14 1   
    19   19   20 1   
    20   19   28 1   
    21   20   21 1   
    22   20   23 1   
    23   20   29 1   
    24   21   22 2   
    25   21   41 1   
    26   23   24 1   
    27   23   30 1   
    28   23   31 1   
    29   24   25 1   
    30   24   32 1   
    31   24   33 1   
    32   25   26 1   
    33   25   34 1   
    34   25   35 1   
    35   26   27 1   
    36   26   36 1   
    37   26   37 1   
    38   27   38 1   
    39   27   39 1   
    40   27   40 1   
    41   41   42 1   
    42   41   49 1   
    43   42   43 1   
    44   42   45 1   
    45   42   50 1   
    46   43   44 2   
    47   43   53 1   
    48   45   46 1   
    49   45   51 1   
    50   45   52 1   
    51   46   47 1   
    52   46   48 1   
    53   53   54 1   
    54   53   57 1   
    55   54   55 1   
    56   54   58 1   
    57   54   59 1   
    58   55   56 2   
    59   55   60 1   
    60   60   61 1   
    61   60   68 1   
    62   61   62 1   
    63   61   64 1   
    64   61   69 1   
    65   62   63 2   
    66   62   72 1   
    67   64   65 1   
    68   64   70 1   
    69   64   71 1   
    70   65   66 1   
    71   65   67 1   
    72   72   73 1   
    73   72   76 1   
    74   73   74 1   
    75   73   77 1   
    76   73   78 1   
    77   74   75 2   
    78   74   79 1   
    79   79   80 1   
    80   79   86 1   
    81   80   81 1   
    82   80   83 1   
    83   80   87 1   
    84   81   82 2   
    85   81   93 1   
    86   83   84 1   
    87   83   85 1   
    88   83   88 1   
    89   84   90 1   
    90   84   91 1   
    91   84   92 1   
    92   85   89 1   
    93   93   94 1   
    94   93  101 1   
    95   94   95 1   
    96   94   97 1   
    97   94  102 1   
    98   95   96 2   
    99   95  112 1   
   100   97   98 1   
   101   97   99 1   
   102   97  103 1   
   103   98  100 1   
   104   98  104 1   
   105   98  105 1   
   106   99  106 1   
   107   99  107 1   
   108   99  108 1   
   109  100  109 1   
   110  100  110 1   
   111  100  111 1   
   112  112  113 1   
   113  112  119 1   
   114  113  114 1   
   115  113  116 1   
   116  113  120 1   
   117  114  115 2   
   118  114  126 1   
   119  116  117 1   
   120  116  118 1   
   121  116  121 1   
   122  117  123 1   
   123  117  124 1   
   124  117  125 1   
   125  118  122 1   
   126  126  127 1   
   127  126  133 1   
   128  127  128 1   
   129  127  130 1   
   130  127  134 1   
   131  128  129 2   
   132  128  140 1   
   133  130  131 1   
   134  130  132 1   
   135  130  135 1   
   136  131  137 1   
   137  131  138 1   
   138  131  139 1   
   139  132  136 1   
   140  140  141 1   
   141  140  149 1   
   142  141  142 1   
   143  141  144 1   
   144  141  150 1   
   145  142  143 2   
   146  142  162 1   
   147  144  145 1   
   148  144  151 1   
   149  144  152 1   
   150  145  146 1   
   151  145  153 1   
   152  145  154 1   
   153  146  147 1   
   154  146  155 1   
   155  146  156 1   
   156  147  148 1   
   157  147  157 1   
   158  147  158 1   
   159  148  159 1   
   160  148  160 1   
   161  148  161 1   
   162  162  163 1   
   163  162  171 1   
   164  163  164 1   
   165  163  166 1   
   166  163  172 1   
   167  164  165 2   
   168  164  177 1   
   169  166  167 1   
   170  166  173 1   
   171  166  174 1   
   172  167  168 1   
   173  167  175 1   
   174  167  176 1   
   175  168  169 1   
   176  168  170 1   
   177  177  178 1   
   178  177  182 1   
   179  178  179 1   
   180  178  180 1   
   181  178  181 1   
   182  184  185 1   
   183  184  186 1   
   184  187  188 1   
   185  187  189 1   
   186  190  191 1   
   187  190  192 1   
   188  193  194 1   
   189  193  195 1   
   190  196  197 1   
   191  196  198 1   
@<TRIPOS>SUBSTRUCTURE
     1 MOL         1 TEMP              0 ****  ****    0 ROOT
