@<TRIPOS>MOLECULE
MOL
  192   187     1     0     0
SMALL
resp


@<TRIPOS>ATOM
      1 C1          4.5140    4.2900   -3.6800 c3        1 MOL     -0.263711
      2 C2          5.2140    3.3340   -2.7470 c         1 MOL      0.824723
      3 O1          4.7040    3.0010   -1.6630 o         1 MOL     -0.712672
      4 H1          3.8320    3.7340   -4.3240 hc        1 MOL      0.068615
      5 H2          3.9490    5.0190   -3.0990 hc        1 MOL      0.068615
      6 H3          5.2520    4.8060   -4.2940 hc        1 MOL      0.068615
      7 N1          6.3870    2.7590   -3.1890 n         1 MOL     -0.784524
      8 C3          7.0990    1.6050   -2.5770 c3        1 MOL      0.109241
      9 C4          6.2260    0.4620   -2.0420 c         1 MOL      0.273312
     10 O2          5.9240    0.3390   -0.8760 o         1 MOL     -0.266790
     11 C5          8.1950    2.1420   -1.6800 c3        1 MOL     -0.097109
     12 C6          7.8170    3.1040   -0.6050 c         1 MOL      0.806861
     13 O3          7.0370    2.7330    0.2730 o         1 MOL     -0.743716
     14 O4          8.4700    4.1430   -0.5730 o         1 MOL     -0.743716
     15 H4          6.7390    3.1280   -4.0590 hn        1 MOL      0.377294
     16 H5          7.6280    1.1040   -3.3880 h1        1 MOL      0.057006
     17 H6          9.0770    2.4740   -2.2300 hc        1 MOL      0.021656
     18 H7          8.5590    1.2860   -1.1130 hc        1 MOL      0.021656
     19 N2          5.8040   -0.4610   -2.9530 n         1 MOL     -0.387177
     20 C7          5.0420   -1.7270   -2.8700 c3        1 MOL     -0.032326
     21 C8          5.8510   -2.8280   -2.1410 c         1 MOL      0.461688
     22 O5          6.0460   -3.9040   -2.7040 o         1 MOL     -0.549533
     23 C9          3.6030   -1.4770   -2.2350 c3        1 MOL      0.752080
     24 C10         2.6420   -2.6850   -2.4040 c3        1 MOL     -0.389699
     25 C11         2.9500   -0.2110   -2.7820 c3        1 MOL     -0.088425
     26 C12         2.7660   -3.5060   -3.7010 c3        1 MOL     -0.126535
     27 H8          6.0760   -0.1030   -3.8610 hn        1 MOL      0.258185
     28 H9          4.8810   -2.0200   -3.9020 h1        1 MOL      0.058218
     29 H10         3.6950   -1.3140   -1.1640 hc        1 MOL     -0.459818
     30 H11         1.6190   -2.3110   -2.3450 hc        1 MOL      0.140284
     31 H12         2.8370   -3.3510   -1.5600 hc        1 MOL      0.140284
     32 H13         3.0500   -0.3080   -3.8640 hc        1 MOL     -0.027059
     33 H14         1.9390   -0.1680   -2.4030 hc        1 MOL     -0.027059
     34 H15         3.5620    0.6210   -2.4290 hc        1 MOL     -0.027059
     35 H16         2.1980   -4.4330   -3.6460 hc        1 MOL      0.022127
     36 H17         2.4980   -2.8380   -4.5190 hc        1 MOL      0.022127
     37 H18         3.7900   -3.7980   -3.9530 hc        1 MOL      0.022127
     38 N3          6.4810   -2.5950   -0.9780 n         1 MOL     -0.290987
     39 C13         7.2080   -3.5990   -0.2140 c3        1 MOL      0.041778
     40 C14         6.2820   -4.7890    0.1250 c         1 MOL      0.604903
     41 O6          6.6990   -5.9500    0.1280 o         1 MOL     -0.594157
     42 C15         7.7980   -2.8520    0.9350 c3        1 MOL     -0.203144
     43 C16         8.6410   -1.6480    0.5740 c         1 MOL      0.783804
     44 O7          8.5990   -0.7410    1.3840 o         1 MOL     -0.717431
     45 O8          9.4160   -1.7550   -0.3750 o         1 MOL     -0.717431
     46 H19         6.4230   -1.6710   -0.5670 hn        1 MOL      0.204875
     47 H20         8.0120   -4.0200   -0.8260 h1        1 MOL      0.046661
     48 H21         8.4350   -3.5620    1.4500 hc        1 MOL      0.051581
     49 H22         6.9870   -2.5350    1.5820 hc        1 MOL      0.051581
     50 N4          4.9970   -4.5530    0.3930 n         1 MOL     -0.556092
     51 C17         4.2170   -3.4690    1.0140 c3        1 MOL      0.300152
     52 C18         4.5740   -3.1320    2.4400 c         1 MOL      0.352170
     53 O9          5.5000   -3.7610    2.9860 o         1 MOL     -0.542390
     54 H23         4.5530   -5.4350    0.5940 hn        1 MOL      0.272411
     55 H24         3.1790   -3.7930    0.9630 h1        1 MOL      0.002919
     56 H25         4.3170   -2.5750    0.4030 h1        1 MOL      0.002919
     57 N5          3.8400   -2.3160    3.1330 n         1 MOL     -0.326609
     58 C19         2.4430   -1.8490    2.9360 c3        1 MOL      0.041432
     59 C20         2.4520   -1.0490    1.6620 c         1 MOL      0.447435
     60 O10         3.4950   -0.4730    1.2130 o         1 MOL     -0.449529
     61 C21         1.8010   -1.1730    4.1510 c3        1 MOL     -0.164368
     62 C22         2.8160   -0.5380    5.1060 c         1 MOL      0.740101
     63 O11         3.6570   -1.2150    5.6770 o         1 MOL     -0.692817
     64 O12         2.6590    0.6600    5.2460 o         1 MOL     -0.692817
     65 H26         4.1620   -2.2140    4.0850 hn        1 MOL      0.272037
     66 H27         1.7840   -2.7000    2.7530 h1        1 MOL      0.058623
     67 H28         1.2780   -1.9550    4.7060 hc        1 MOL      0.029961
     68 H29         1.0520   -0.4080    3.9320 hc        1 MOL      0.029961
     69 N6          1.3190   -1.0580    0.9340 n         1 MOL     -0.462599
     70 C23        -0.0450   -1.4330    1.3770 c3        1 MOL     -0.022914
     71 C24        -0.6050   -2.7630    0.8990 c         1 MOL      0.432743
     72 O13         0.1220   -3.6160    0.3750 o         1 MOL     -0.535851
     73 H30         1.3860   -0.6400    0.0160 hn        1 MOL      0.359998
     74 H31        -0.8030   -0.7150    1.0760 h1        1 MOL      0.105524
     75 H32        -0.0870   -1.3610    2.4710 h1        1 MOL      0.105524
     76 N7         -1.8440   -3.0350    1.1440 n         1 MOL     -0.230428
     77 C25        -2.5780   -4.2130    0.7350 c3        1 MOL     -0.073549
     78 C26        -3.1370   -4.1620   -0.7200 c         1 MOL      0.340595
     79 O14        -3.3760   -5.2120   -1.3470 o         1 MOL     -0.494007
     80 C27        -3.6810   -4.6700    1.7230 c3        1 MOL     -0.081004
     81 C28        -4.7140   -3.6300    2.1520 c3        1 MOL     -0.080097
     82 C29        -5.6830   -3.2370    1.0800 c         1 MOL      0.437885
     83 N8         -6.6430   -4.1360    0.6720 n         1 MOL     -0.696592
     84 O15        -5.5240   -2.1610    0.4760 o         1 MOL     -0.391549
     85 H33        -2.4050   -2.3300    1.6040 hn        1 MOL      0.174274
     86 H34        -1.7980   -4.9730    0.7900 h1        1 MOL      0.161783
     87 H35        -3.2220   -5.1000    2.6140 hc        1 MOL      0.035132
     88 H36        -4.2900   -5.4470    1.2640 hc        1 MOL      0.035132
     89 H37        -4.0900   -2.7610    2.3670 hc        1 MOL      0.086075
     90 H38        -5.2270   -3.9340    3.0590 hc        1 MOL      0.086075
     91 H39        -6.5680   -5.0890    1.0110 hn        1 MOL      0.343890
     92 H40        -7.3340   -3.8110    0.0130 hn        1 MOL      0.343890
     93 N9         -3.4600   -2.9390   -1.2750 n         1 MOL      0.128076
     94 C30        -3.7890   -2.8160   -2.7250 c3        1 MOL     -0.637197
     95 C31        -5.0880   -2.0620   -3.0440 c         1 MOL      0.897501
     96 O16        -5.5450   -2.1540   -4.2090 o         1 MOL     -0.610549
     97 C32        -2.6100   -2.2480   -3.5550 c3        1 MOL      0.226461
     98 C33        -1.4130   -3.1790   -3.5290 c3        1 MOL     -0.109035
     99 C34        -2.2400   -0.8770   -2.9810 c3        1 MOL     -0.109035
    100 H41        -3.4320   -2.0970   -0.7160 hn        1 MOL      0.069394
    101 H42        -3.9340   -3.8200   -3.1100 h1        1 MOL      0.215235
    102 H43        -2.8140   -1.9700   -4.5910 hc        1 MOL     -0.002796
    103 H44        -1.2410   -3.4530   -2.4860 hc        1 MOL      0.024439
    104 H45        -1.5880   -4.0960   -4.0780 hc        1 MOL      0.024439
    105 H46        -0.5160   -2.7100   -3.9400 hc        1 MOL      0.024439
    106 H47        -3.1140   -0.2550   -3.2020 hc        1 MOL      0.024439
    107 H48        -1.8430   -0.9480   -1.9690 hc        1 MOL      0.024439
    108 H49        -1.3880   -0.4530   -3.5130 hc        1 MOL      0.024439
    109 N10        -5.8240   -1.4100   -2.0900 n         1 MOL     -0.843940
    110 C35        -7.1020   -0.7470   -2.4460 c3        1 MOL      0.357810
    111 C36        -7.1730    0.6970   -2.0740 c         1 MOL      0.454471
    112 O17        -8.0810    1.3320   -2.5940 o         1 MOL     -0.574036
    113 C37        -8.2350   -1.6130   -1.8800 c3        1 MOL     -0.153013
    114 C38        -8.3720   -3.0290   -2.3880 c         1 MOL      0.598935
    115 N11        -8.8540   -3.2030   -3.6090 n         1 MOL     -0.766909
    116 O18        -8.1070   -4.0030   -1.6740 o         1 MOL     -0.517225
    117 H50        -5.5130   -1.5350   -1.1330 hn        1 MOL      0.414056
    118 H51        -7.2620   -0.8220   -3.5130 h1        1 MOL     -0.011344
    119 H52        -9.1290   -1.1280   -2.2700 hc        1 MOL      0.020177
    120 H53        -8.1390   -1.4960   -0.8060 hc        1 MOL      0.020177
    121 H54        -8.9700   -2.4230   -4.2500 hn        1 MOL      0.366749
    122 H55        -8.9740   -4.0930   -4.0700 hn        1 MOL      0.366749
    123 N12        -6.4040    1.0830   -1.0850 n         1 MOL     -0.276867
    124 C39        -6.4650    2.3810   -0.4450 c3        1 MOL      0.116631
    125 C40        -5.0610    2.8380    0.1410 c         1 MOL      0.358824
    126 O19        -4.1050    2.1450   -0.0110 o         1 MOL     -0.416028
    127 C41        -7.5480    2.3100    0.6500 c3        1 MOL      0.035800
    128 C42        -7.6000    1.0800    1.5610 ca        1 MOL      0.213115
    129 C43        -8.7570    0.3040    1.5260 ca        1 MOL     -0.313446
    130 C44        -6.5000    0.6700    2.3790 ca        1 MOL     -0.313446
    131 C45        -8.8650   -0.8580    2.3070 ca        1 MOL     -0.069395
    132 C46        -6.5550   -0.5260    3.1720 ca        1 MOL     -0.069395
    133 C47        -7.7530   -1.3220    3.0650 ca        1 MOL      0.140693
    134 O20        -7.7840   -2.5470    3.6470 oh        1 MOL     -0.412513
    135 H56        -5.8300    0.3460   -0.7130 hn        1 MOL      0.168781
    136 H57        -6.7160    3.1130   -1.2040 h1        1 MOL      0.041695
    137 H58        -8.5200    2.5520    0.2290 hc        1 MOL     -0.010579
    138 H59        -7.3490    3.0700    1.4140 hc        1 MOL     -0.010579
    139 H60        -9.6260    0.6410    0.9630 ha        1 MOL      0.128474
    140 H61        -5.5610    1.1940    2.3080 ha        1 MOL      0.128474
    141 H62        -9.7580   -1.4720    2.3400 ha        1 MOL      0.092356
    142 H63        -5.6740   -0.9670    3.6100 ha        1 MOL      0.092356
    143 H64        -8.6150   -2.9780    3.4590 ho        1 MOL      0.314107
    144 N13        -5.0230    4.0810    0.6750 n         1 MOL     -0.415773
    145 C48        -3.8680    4.7870    1.2930 c3        1 MOL      0.000156
    146 C49        -2.7110    5.1240    0.3490 c         1 MOL      0.384135
    147 O21        -2.0830    6.1700    0.4630 o         1 MOL     -0.553573
    148 C50        -3.3740    4.0160    2.4890 c3        1 MOL      0.077928
    149 C51        -4.4870    3.7070    3.4830 c3        1 MOL     -0.158162
    150 C52        -3.9540    2.9760    4.7100 c         1 MOL      0.678799
    151 O22        -3.5860    1.7720    4.7320 o         1 MOL     -0.701712
    152 O23        -3.8780    3.7040    5.7390 o         1 MOL     -0.701712
    153 H65        -5.8130    4.7070    0.5480 hn        1 MOL      0.274902
    154 H66        -4.1780    5.8150    1.4540 h1        1 MOL      0.067263
    155 H67        -2.6400    4.6410    3.0080 hc        1 MOL      0.039057
    156 H68        -2.7900    3.1310    2.2410 hc        1 MOL      0.039057
    157 H69        -5.2610    3.1450    2.9720 hc        1 MOL      0.000850
    158 H70        -4.9760    4.6210    3.8000 hc        1 MOL      0.000850
    159 N14        -2.4210    4.3200   -0.6450 n         1 MOL     -0.119632
    160 C53        -1.2650    4.3690   -1.4730 c3        1 MOL     -0.112443
    161 C54        -1.5730    5.2390   -2.7180 c         1 MOL      0.434915
    162 O24        -0.7670    5.6040   -3.5300 o         1 MOL     -0.532953
    163 C55        -0.8140    2.9650   -1.9250 c3        1 MOL     -0.029968
    164 C56        -0.1550    2.0660   -0.8130 c3        1 MOL      0.065940
    165 C57         1.1030    2.6190   -0.0210 c         1 MOL      0.713783
    166 O25         1.0770    3.6220    0.7150 o         1 MOL     -0.669896
    167 O26         2.1380    1.8820   -0.0060 o         1 MOL     -0.669896
    168 H71        -3.0330    3.5220   -0.7300 hn        1 MOL      0.150199
    169 H72        -0.4660    4.7850   -0.8610 h1        1 MOL      0.155686
    170 H73        -0.0190    3.1210   -2.6610 hc        1 MOL      0.007027
    171 H74        -1.6540    2.4470   -2.3940 hc        1 MOL      0.007027
    172 H75         0.1110    1.0650   -1.1510 hc        1 MOL     -0.057384
    173 H76        -0.9230    1.9550   -0.0490 hc        1 MOL     -0.057384
    174 N15        -2.8290    5.6190   -2.7970 n         1 MOL     -0.163674
    175 C58        -3.3690    6.4590   -3.8330 c3        1 MOL     -0.105004
    176 H77        -4.1700    5.9290   -4.3480 h1        1 MOL      0.052565
    177 H78        -3.7650    7.3730   -3.3900 h1        1 MOL      0.052565
    178 H79        -2.5830    6.7110   -4.5450 h1        1 MOL      0.052565
    179 H80        -3.4570    5.3760   -2.0480 hn        1 MOL      0.159035
    180 Ca1         4.6420    1.9250    0.7700 Ca        1 MOL      1.722706
    181 O27         5.7680    3.4220    2.6990 oh        1 MOL     -0.803068
    182 H81         6.2800    4.0970    2.2590 ho        1 MOL      0.377847
    183 H82         5.2490    3.9040    3.3530 ho        1 MOL      0.377847
    184 O28         6.1630    0.2730    2.1930 oh        1 MOL     -0.803068
    185 H83         6.9110   -0.1700    1.8000 ho        1 MOL      0.377847
    186 H84         6.1540   -0.0180    3.0990 ho        1 MOL      0.377847
    187 O29         3.6330    4.4950    1.0440 oh        1 MOL     -0.803068
    188 H85         2.7380    4.3380    0.7490 ho        1 MOL      0.377847
    189 H86         3.5400    4.8690    1.9250 ho        1 MOL      0.377847
    190 O30         3.1180    2.2220    2.9970 oh        1 MOL     -0.803068
    191 H87         3.1820    2.9230    3.6520 ho        1 MOL      0.377847
    192 H88         2.8160    1.4660    3.4960 ho        1 MOL      0.377847
@<TRIPOS>BOND
     1    1    2 1   
     2    1    4 1   
     3    1    5 1   
     4    1    6 1   
     5    2    3 2   
     6    2    7 1   
     7    7    8 1   
     8    7   15 1   
     9    8    9 1   
    10    8   11 1   
    11    8   16 1   
    12    9   10 2   
    13    9   19 1   
    14   11   12 1   
    15   11   17 1   
    16   11   18 1   
    17   12   13 1   
    18   12   14 1   
    19   19   20 1   
    20   19   27 1   
    21   20   21 1   
    22   20   23 1   
    23   20   28 1   
    24   21   22 2   
    25   21   38 1   
    26   23   24 1   
    27   23   25 1   
    28   23   29 1   
    29   24   26 1   
    30   24   30 1   
    31   24   31 1   
    32   25   32 1   
    33   25   33 1   
    34   25   34 1   
    35   26   35 1   
    36   26   36 1   
    37   26   37 1   
    38   38   39 1   
    39   38   46 1   
    40   39   40 1   
    41   39   42 1   
    42   39   47 1   
    43   40   41 2   
    44   40   50 1   
    45   42   43 1   
    46   42   48 1   
    47   42   49 1   
    48   43   44 1   
    49   43   45 1   
    50   50   51 1   
    51   50   54 1   
    52   51   52 1   
    53   51   55 1   
    54   51   56 1   
    55   52   53 2   
    56   52   57 1   
    57   57   58 1   
    58   57   65 1   
    59   58   59 1   
    60   58   61 1   
    61   58   66 1   
    62   59   60 2   
    63   59   69 1   
    64   61   62 1   
    65   61   67 1   
    66   61   68 1   
    67   62   63 1   
    68   62   64 1   
    69   69   70 1   
    70   69   73 1   
    71   70   71 1   
    72   70   74 1   
    73   70   75 1   
    74   71   72 2   
    75   71   76 1   
    76   76   77 1   
    77   76   85 1   
    78   77   78 1   
    79   77   80 1   
    80   77   86 1   
    81   78   79 2   
    82   78   93 1   
    83   80   81 1   
    84   80   87 1   
    85   80   88 1   
    86   81   82 1   
    87   81   89 1   
    88   81   90 1   
    89   82   83 1   
    90   82   84 2   
    91   83   91 1   
    92   83   92 1   
    93   93   94 1   
    94   93  100 1   
    95   94   95 1   
    96   94   97 1   
    97   94  101 1   
    98   95   96 2   
    99   95  109 1   
   100   97   98 1   
   101   97   99 1   
   102   97  102 1   
   103   98  103 1   
   104   98  104 1   
   105   98  105 1   
   106   99  106 1   
   107   99  107 1   
   108   99  108 1   
   109  109  110 1   
   110  109  117 1   
   111  110  111 1   
   112  110  113 1   
   113  110  118 1   
   114  111  112 2   
   115  111  123 1   
   116  113  114 1   
   117  113  119 1   
   118  113  120 1   
   119  114  115 1   
   120  114  116 2   
   121  115  121 1   
   122  115  122 1   
   123  123  124 1   
   124  123  135 1   
   125  124  125 1   
   126  124  127 1   
   127  124  136 1   
   128  125  126 2   
   129  125  144 1   
   130  127  128 1   
   131  127  137 1   
   132  127  138 1   
   133  128  129 ar  
   134  128  130 ar  
   135  129  131 ar  
   136  129  139 1   
   137  130  132 ar  
   138  130  140 1   
   139  131  133 ar  
   140  131  141 1   
   141  132  133 ar  
   142  132  142 1   
   143  133  134 1   
   144  134  143 1   
   145  144  145 1   
   146  144  153 1   
   147  145  146 1   
   148  145  148 1   
   149  145  154 1   
   150  146  147 2   
   151  146  159 1   
   152  148  149 1   
   153  148  155 1   
   154  148  156 1   
   155  149  150 1   
   156  149  157 1   
   157  149  158 1   
   158  150  151 1   
   159  150  152 1   
   160  159  160 1   
   161  159  168 1   
   162  160  161 1   
   163  160  163 1   
   164  160  169 1   
   165  161  162 2   
   166  161  174 1   
   167  163  164 1   
   168  163  170 1   
   169  163  171 1   
   170  164  165 1   
   171  164  172 1   
   172  164  173 1   
   173  165  166 1   
   174  165  167 1   
   175  174  175 1   
   176  174  179 1   
   177  175  176 1   
   178  175  177 1   
   179  175  178 1   
   180  181  182 1   
   181  181  183 1   
   182  184  185 1   
   183  184  186 1   
   184  187  188 1   
   185  187  189 1   
   186  190  191 1   
   187  190  192 1   
@<TRIPOS>SUBSTRUCTURE
     1 MOL         1 TEMP              0 ****  ****    0 ROOT
