@<TRIPOS>MOLECULE
MOL
  189   185     1     0     0
SMALL
resp


@<TRIPOS>ATOM
      1 C1          4.3030    3.8880   -3.3610 c3        1 MOL     -0.487366
      2 C2          5.1920    3.0760   -2.4200 c         1 MOL      0.811124
      3 O1          4.8160    2.7540   -1.3130 o         1 MOL     -0.717799
      4 H1          3.3850    3.3350   -3.5610 hc        1 MOL      0.126751
      5 H2          4.0580    4.8430   -2.8970 hc        1 MOL      0.126751
      6 H3          4.8310    4.0650   -4.2980 hc        1 MOL      0.126751
      7 N1          6.3000    2.5050   -2.9040 n         1 MOL     -0.660316
      8 C3          7.1060    1.4070   -2.3240 c3        1 MOL      0.242279
      9 C4          6.2470    0.2010   -1.8300 c         1 MOL      0.121934
     10 O2          5.7680    0.1220   -0.6640 o         1 MOL     -0.342568
     11 C5          8.0880    1.9110   -1.1960 c3        1 MOL     -0.181457
     12 C6          7.6000    2.8790   -0.1570 c         1 MOL      0.784457
     13 O3          7.0070    2.3610    0.8150 o         1 MOL     -0.740177
     14 O4          7.7410    4.1390   -0.2520 o         1 MOL     -0.740177
     15 H4          6.6250    2.8360   -3.8020 hn        1 MOL      0.323257
     16 H5          7.6820    1.0190   -3.1570 h1        1 MOL      0.045167
     17 H6          8.9630    2.3690   -1.6750 hc        1 MOL      0.031191
     18 H7          8.5420    1.0880   -0.6430 hc        1 MOL      0.031191
     19 N2          5.8810   -0.6690   -2.8260 n         1 MOL     -0.257903
     20 C7          5.0020   -1.8530   -2.8110 c3        1 MOL      0.018000
     21 C8          5.4200   -3.0240   -1.9240 c         1 MOL      0.331830
     22 O5          5.5890   -4.1300   -2.4480 o         1 MOL     -0.550894
     23 C9          3.5020   -1.5330   -2.6770 c3        1 MOL      0.041046
     24 C10         2.5570   -2.6390   -3.0470 c3        1 MOL     -0.099641
     25 C11         2.9710   -0.1790   -3.3170 c3        1 MOL     -0.097282
     26 C12         2.5140   -2.9670   -4.5500 c3        1 MOL     -0.192632
     27 H8          6.2460   -0.5830   -3.7590 hn        1 MOL      0.245207
     28 H9          5.1780   -2.2840   -3.7970 h1        1 MOL      0.080411
     29 H10         3.3480   -1.2310   -1.6380 hc        1 MOL      0.013125
     30 H11         1.6070   -2.2510   -2.6910 hc        1 MOL      0.073625
     31 H12         2.7870   -3.4740   -2.3780 hc        1 MOL      0.073625
     32 H13         3.2050   -0.0970   -4.3800 hc        1 MOL      0.021340
     33 H14         1.8830   -0.0860   -3.3180 hc        1 MOL      0.021340
     34 H15         3.4010    0.7130   -2.8630 hc        1 MOL      0.021340
     35 H16         1.8840   -3.8070   -4.8290 hc        1 MOL      0.037451
     36 H17         2.0320   -2.1490   -5.0860 hc        1 MOL      0.037451
     37 H18         3.5290   -3.1030   -4.9150 hc        1 MOL      0.037451
     38 N3          5.6830   -2.8260   -0.6370 n         1 MOL     -0.095788
     39 C13         6.4130   -3.8300    0.2420 c3        1 MOL      0.024147
     40 C14         5.6310   -4.9570    0.9610 c         1 MOL      0.634651
     41 O6          6.2830   -5.9620    1.2950 o         1 MOL     -0.581891
     42 C15         7.3910   -3.1700    1.1810 c3        1 MOL     -0.229958
     43 C16         8.4100   -2.1090    0.6350 c         1 MOL      0.744364
     44 O7          8.9820   -1.3390    1.4050 o         1 MOL     -0.718960
     45 O8          8.8380   -2.1550   -0.5540 o         1 MOL     -0.718960
     46 H19         5.6200   -1.8660   -0.3500 hn        1 MOL      0.211157
     47 H20         7.0120   -4.3710   -0.4860 h1        1 MOL      0.063405
     48 H21         7.9760   -4.0000    1.5900 hc        1 MOL      0.056679
     49 H22         6.8580   -2.7450    2.0290 hc        1 MOL      0.056679
     50 N4          4.3080   -5.0550    1.2300 n         1 MOL     -0.659521
     51 C17         3.4270   -3.9480    1.5790 c3        1 MOL      0.146036
     52 C18         3.8290   -3.1780    2.8930 c         1 MOL      0.409724
     53 O9          4.8070   -3.5120    3.5670 o         1 MOL     -0.520980
     54 H23         3.9350   -5.9320    1.5710 hn        1 MOL      0.337549
     55 H24         2.4090   -4.3270    1.7120 h1        1 MOL      0.048264
     56 H25         3.4340   -3.1900    0.8100 h1        1 MOL      0.048264
     57 N5          3.2280   -2.1040    3.3580 n         1 MOL     -0.320778
     58 C19         1.9750   -1.4900    2.9100 c3        1 MOL      0.051056
     59 C20         2.0420   -0.8570    1.5150 c         1 MOL      0.242915
     60 O10         3.1350   -0.5480    1.0300 o         1 MOL     -0.529077
     61 C21         1.5640   -0.3600    3.8660 c3        1 MOL     -0.171157
     62 C22         2.6110    0.7540    4.0740 c         1 MOL      0.812201
     63 O11         2.6230    1.6650    3.1980 o         1 MOL     -0.712024
     64 O12         3.1780    0.7480    5.1690 o         1 MOL     -0.712024
     65 H26         3.5650   -1.7780    4.2540 hn        1 MOL      0.267704
     66 H27         1.1270   -2.1790    2.8540 h1        1 MOL      0.004333
     67 H28         1.3100   -0.8330    4.8130 hc        1 MOL      0.029550
     68 H29         0.6390    0.1290    3.5420 hc        1 MOL      0.029550
     69 N6          0.9780   -0.5220    0.7840 n         1 MOL     -0.196460
     70 C23        -0.4270   -0.9100    1.0140 c3        1 MOL      0.085603
     71 C24        -0.7220   -2.3990    0.7290 c         1 MOL      0.556049
     72 O13         0.0750   -3.1060    0.0400 o         1 MOL     -0.568188
     73 H30         1.1240    0.0940    0.0010 hn        1 MOL      0.209448
     74 H31        -1.0210   -0.3150    0.3280 h1        1 MOL      0.022934
     75 H32        -0.7440   -0.6520    2.0200 h1        1 MOL      0.022934
     76 N7         -1.8530   -2.9360    1.1690 n         1 MOL     -0.419168
     77 C25        -2.2930   -4.2540    0.7080 c3        1 MOL      0.110667
     78 C26        -2.9880   -4.2720   -0.6980 c         1 MOL      0.427410
     79 O14        -3.2370   -5.3580   -1.2230 o         1 MOL     -0.531674
     80 C27        -3.2240   -4.9110    1.7680 c3        1 MOL     -0.320558
     81 C28        -4.3690   -4.0900    2.3910 c3        1 MOL      0.076123
     82 C29        -5.4560   -3.8960    1.3500 c         1 MOL      0.394423
     83 N8         -6.3710   -4.8170    1.2660 n         1 MOL     -0.574432
     84 O15        -5.5120   -2.7930    0.7770 o         1 MOL     -0.422233
     85 H33        -2.5610   -2.2890    1.5020 hn        1 MOL      0.208333
     86 H34        -1.4580   -4.9460    0.6340 h1        1 MOL      0.120461
     87 H35        -2.6070   -4.9970    2.6650 hc        1 MOL      0.091860
     88 H36        -3.6310   -5.8380    1.3640 hc        1 MOL      0.091860
     89 H37        -4.0110   -3.1360    2.7800 hc        1 MOL      0.024301
     90 H38        -4.6880   -4.6210    3.2920 hc        1 MOL      0.024301
     91 H39        -6.1880   -5.6840    1.7530 hn        1 MOL      0.322033
     92 H40        -7.1900   -4.6070    0.7220 hn        1 MOL      0.322033
     93 N9         -3.1600   -3.1070   -1.3640 n         1 MOL     -0.184435
     94 C30        -3.4440   -2.9310   -2.7600 c3        1 MOL     -0.017631
     95 C31        -4.7830   -2.2530   -3.0560 c         1 MOL      0.302127
     96 O16        -5.0950   -1.9610   -4.2150 o         1 MOL     -0.523662
     97 C32        -2.3660   -2.0370   -3.4510 c3        1 MOL      0.083385
     98 C33        -1.2100   -2.8800   -3.8940 c3        1 MOL     -0.092141
     99 C34        -1.8800   -0.8070   -2.5780 c3        1 MOL     -0.092141
    100 H41        -3.0680   -2.2600   -0.8250 hn        1 MOL      0.179409
    101 H42        -3.4780   -3.9050   -3.2410 h1        1 MOL      0.119484
    102 H43        -2.7350   -1.6530   -4.4070 hc        1 MOL      0.033231
    103 H44        -0.5270   -3.2120   -3.1220 hc        1 MOL      0.022778
    104 H45        -1.5990   -3.7340   -4.4520 hc        1 MOL      0.022778
    105 H46        -0.6220   -2.2540   -4.5580 hc        1 MOL      0.022778
    106 H47        -2.6790   -0.1870   -2.1950 hc        1 MOL      0.022778
    107 H48        -1.2800   -1.1340   -1.7310 hc        1 MOL      0.022778
    108 H49        -1.3130   -0.1460   -3.2320 hc        1 MOL      0.022778
    109 N10        -5.6090   -1.9200   -2.0170 n         1 MOL     -0.082655
    110 C35        -6.9110   -1.2830   -2.2170 c3        1 MOL     -0.008478
    111 C36        -7.1310    0.1340   -1.5920 c         1 MOL      0.422825
    112 O17        -8.2320    0.6850   -1.6780 o         1 MOL     -0.517107
    113 C37        -7.9870   -2.1200   -1.4860 c3        1 MOL     -0.182128
    114 C38        -8.1670   -3.5220   -1.9780 c         1 MOL      0.584087
    115 N11        -8.3790   -3.6240   -3.2630 n         1 MOL     -0.673547
    116 O18        -8.1280   -4.5090   -1.2870 o         1 MOL     -0.554199
    117 H50        -5.3530   -2.2090   -1.0900 hn        1 MOL      0.115798
    118 H51        -7.0880   -1.3100   -3.2900 h1        1 MOL      0.098388
    119 H52        -8.9670   -1.7160   -1.7500 hc        1 MOL      0.064914
    120 H53        -7.7890   -2.1330   -0.4080 hc        1 MOL      0.064914
    121 H54        -8.5240   -2.8470   -3.8840 hn        1 MOL      0.326062
    122 H55        -8.6980   -4.5290   -3.5730 hn        1 MOL      0.326062
    123 N12        -6.1180    0.6200   -0.8780 n         1 MOL     -0.428728
    124 C39        -6.0900    1.9530   -0.2220 c3        1 MOL      0.341496
    125 C40        -4.6930    2.5970   -0.0250 c         1 MOL      0.200661
    126 O19        -3.6270    2.0050   -0.1780 o         1 MOL     -0.367163
    127 C41        -6.9030    2.0040    1.1030 c3        1 MOL     -0.191711
    128 C42        -6.5860    0.7250    1.9560 ca        1 MOL      0.058445
    129 C43        -5.4460    0.6250    2.8120 ca        1 MOL     -0.160658
    130 C44        -7.4920   -0.3450    1.9620 ca        1 MOL     -0.160658
    131 C45        -5.2960   -0.4410    3.7000 ca        1 MOL     -0.235810
    132 C46        -7.2900   -1.5100    2.7180 ca        1 MOL     -0.235810
    133 C47        -6.2740   -1.4540    3.6570 ca        1 MOL      0.314111
    134 O20        -6.0680   -2.5150    4.5270 oh        1 MOL     -0.575636
    135 H56        -5.3190    0.0220   -0.7430 hn        1 MOL      0.225978
    136 H57        -6.7390    2.5530   -0.8640 h1        1 MOL      0.031735
    137 H58        -7.9440    2.0410    0.7910 hc        1 MOL      0.073442
    138 H59        -6.7240    2.8970    1.7140 hc        1 MOL      0.073442
    139 H60        -4.6770    1.3830    2.7630 ha        1 MOL      0.148599
    140 H61        -8.3380   -0.3490    1.2910 ha        1 MOL      0.148599
    141 H62        -4.4900   -0.3940    4.4320 ha        1 MOL      0.145155
    142 H63        -7.9550   -2.3560    2.6970 ha        1 MOL      0.145155
    143 H64        -5.2200   -2.4190    4.9780 ho        1 MOL      0.396696
    144 N13        -4.7570    3.8840    0.3790 n         1 MOL     -0.575626
    145 C48        -3.7250    4.8580    0.8540 c3        1 MOL      0.247330
    146 C49        -2.6530    5.2830   -0.1750 c         1 MOL      0.401922
    147 O21        -2.2330    6.4670   -0.1230 o         1 MOL     -0.508479
    148 C50        -3.0510    4.2540    2.1780 c3        1 MOL      0.051425
    149 C51        -3.9440    4.4170    3.4000 c3        1 MOL     -0.201885
    150 C52        -4.2140    5.8440    3.7230 c         1 MOL      0.669024
    151 O22        -3.2100    6.4630    4.0610 o         1 MOL     -0.716388
    152 O23        -5.3120    6.3220    3.5200 o         1 MOL     -0.716388
    153 H65        -5.7090    4.2380    0.3960 hn        1 MOL      0.307427
    154 H66        -4.2630    5.7720    1.1030 h1        1 MOL      0.055880
    155 H67        -2.1290    4.8010    2.3710 hc        1 MOL      0.047355
    156 H68        -2.7790    3.2060    2.0590 hc        1 MOL      0.047355
    157 H69        -3.4160    3.9160    4.2050 hc        1 MOL      0.014380
    158 H70        -4.8230    3.8090    3.2120 hc        1 MOL      0.014380
    159 N14        -2.2740    4.4050   -1.0770 n         1 MOL     -0.370784
    160 C53        -1.0710    4.4230   -1.8760 c3        1 MOL     -0.275291
    161 C54        -1.1960    5.3310   -3.0910 c         1 MOL      0.599211
    162 O24        -0.2210    5.5980   -3.7240 o         1 MOL     -0.556466
    163 C55        -0.4820    3.0370   -2.2010 c3        1 MOL     -0.095562
    164 C56        -0.1090    2.2430   -0.9660 c3        1 MOL      0.339016
    165 C57         1.0700    2.7810   -0.1620 c         1 MOL      0.569727
    166 O25         1.0700    3.9470    0.2900 o         1 MOL     -0.606900
    167 O26         2.1020    2.1180   -0.0050 o         1 MOL     -0.606900
    168 H71        -2.7400    3.5100   -1.0560 hn        1 MOL      0.286958
    169 H72        -0.2940    4.8850   -1.2590 h1        1 MOL      0.190479
    170 H73         0.3200    3.2300   -2.9220 hc        1 MOL      0.049114
    171 H74        -1.2360    2.4450   -2.7060 hc        1 MOL      0.049114
    172 H75         0.1390    1.2060   -1.2010 hc        1 MOL     -0.151246
    173 H76        -0.9970    2.2580   -0.3150 hc        1 MOL     -0.151246
    174 N15        -2.4340    5.6140   -3.4240 n         1 MOL     -0.281730
    175 C58        -2.9680    6.3700   -4.5890 c3        1 MOL     -0.187588
    176 H77        -3.9900    6.0490   -4.7920 h1        1 MOL      0.085120
    177 H78        -2.9610    7.4370   -4.3650 h1        1 MOL      0.085120
    178 H79        -2.3470    6.1780   -5.4640 h1        1 MOL      0.085120
    179 H80        -3.0950    5.4150   -2.6900 hn        1 MOL      0.233273
    180 Ca1         4.3500    1.8200    1.0830 Ca        1 MOL      1.769686
    181 O27         3.5670    4.3720    1.2140 oh        1 MOL     -0.836835
    182 H81         4.1130    4.8850    0.6200 ho        1 MOL      0.392823
    183 H82         2.7260    4.2970    0.7630 ho        1 MOL      0.392823
    184 O28         5.3290    2.8740    3.5180 oh        1 MOL     -0.836835
    185 H83         6.0940    2.8430    4.0910 ho        1 MOL      0.392823
    186 H84         4.5870    2.7870    4.1180 ho        1 MOL      0.392823
    187 O29         5.5720    0.1720    2.8110 oh        1 MOL     -0.836835
    188 H85         5.3600   -0.1080    3.7030 ho        1 MOL      0.392823
    189 H86         6.5190    0.2070    2.7860 ho        1 MOL      0.392823
@<TRIPOS>BOND
     1    1    2 1   
     2    1    4 1   
     3    1    5 1   
     4    1    6 1   
     5    2    3 2   
     6    2    7 1   
     7    7    8 1   
     8    7   15 1   
     9    8    9 1   
    10    8   11 1   
    11    8   16 1   
    12    9   10 2   
    13    9   19 1   
    14   11   12 1   
    15   11   17 1   
    16   11   18 1   
    17   12   13 1   
    18   12   14 1   
    19   19   20 1   
    20   19   27 1   
    21   20   21 1   
    22   20   23 1   
    23   20   28 1   
    24   21   22 2   
    25   21   38 1   
    26   23   24 1   
    27   23   25 1   
    28   23   29 1   
    29   24   26 1   
    30   24   30 1   
    31   24   31 1   
    32   25   32 1   
    33   25   33 1   
    34   25   34 1   
    35   26   35 1   
    36   26   36 1   
    37   26   37 1   
    38   38   39 1   
    39   38   46 1   
    40   39   40 1   
    41   39   42 1   
    42   39   47 1   
    43   40   41 2   
    44   40   50 1   
    45   42   43 1   
    46   42   48 1   
    47   42   49 1   
    48   43   44 1   
    49   43   45 1   
    50   50   51 1   
    51   50   54 1   
    52   51   52 1   
    53   51   55 1   
    54   51   56 1   
    55   52   53 2   
    56   52   57 1   
    57   57   58 1   
    58   57   65 1   
    59   58   59 1   
    60   58   61 1   
    61   58   66 1   
    62   59   60 2   
    63   59   69 1   
    64   61   62 1   
    65   61   67 1   
    66   61   68 1   
    67   62   63 1   
    68   62   64 1   
    69   69   70 1   
    70   69   73 1   
    71   70   71 1   
    72   70   74 1   
    73   70   75 1   
    74   71   72 2   
    75   71   76 1   
    76   76   77 1   
    77   76   85 1   
    78   77   78 1   
    79   77   80 1   
    80   77   86 1   
    81   78   79 2   
    82   78   93 1   
    83   80   81 1   
    84   80   87 1   
    85   80   88 1   
    86   81   82 1   
    87   81   89 1   
    88   81   90 1   
    89   82   83 1   
    90   82   84 2   
    91   83   91 1   
    92   83   92 1   
    93   93   94 1   
    94   93  100 1   
    95   94   95 1   
    96   94   97 1   
    97   94  101 1   
    98   95   96 2   
    99   95  109 1   
   100   97   98 1   
   101   97   99 1   
   102   97  102 1   
   103   98  103 1   
   104   98  104 1   
   105   98  105 1   
   106   99  106 1   
   107   99  107 1   
   108   99  108 1   
   109  109  110 1   
   110  109  117 1   
   111  110  111 1   
   112  110  113 1   
   113  110  118 1   
   114  111  112 2   
   115  111  123 1   
   116  113  114 1   
   117  113  119 1   
   118  113  120 1   
   119  114  115 1   
   120  114  116 2   
   121  115  121 1   
   122  115  122 1   
   123  123  124 1   
   124  123  135 1   
   125  124  125 1   
   126  124  127 1   
   127  124  136 1   
   128  125  126 2   
   129  125  144 1   
   130  127  128 1   
   131  127  137 1   
   132  127  138 1   
   133  128  129 ar  
   134  128  130 ar  
   135  129  131 ar  
   136  129  139 1   
   137  130  132 ar  
   138  130  140 1   
   139  131  133 ar  
   140  131  141 1   
   141  132  133 ar  
   142  132  142 1   
   143  133  134 1   
   144  134  143 1   
   145  144  145 1   
   146  144  153 1   
   147  145  146 1   
   148  145  148 1   
   149  145  154 1   
   150  146  147 2   
   151  146  159 1   
   152  148  149 1   
   153  148  155 1   
   154  148  156 1   
   155  149  150 1   
   156  149  157 1   
   157  149  158 1   
   158  150  151 1   
   159  150  152 1   
   160  159  160 1   
   161  159  168 1   
   162  160  161 1   
   163  160  163 1   
   164  160  169 1   
   165  161  162 2   
   166  161  174 1   
   167  163  164 1   
   168  163  170 1   
   169  163  171 1   
   170  164  165 1   
   171  164  172 1   
   172  164  173 1   
   173  165  166 1   
   174  165  167 1   
   175  174  175 1   
   176  174  179 1   
   177  175  176 1   
   178  175  177 1   
   179  175  178 1   
   180  181  182 1   
   181  181  183 1   
   182  184  185 1   
   183  184  186 1   
   184  187  188 1   
   185  187  189 1   
@<TRIPOS>SUBSTRUCTURE
     1 MOL         1 TEMP              0 ****  ****    0 ROOT
