@<TRIPOS>MOLECULE
MOL
  189   185     1     0     0
SMALL
resp


@<TRIPOS>ATOM
      1 C1          9.4470   -0.3990    2.8120 c3        1 MOL     -0.576814
      2 C2          8.2070   -0.4270    1.9130 c         1 MOL      0.865813
      3 O1          7.0740   -0.7200    2.2670 o         1 MOL     -0.712542
      4 H1         10.0750   -1.2610    2.5900 hc        1 MOL      0.142747
      5 H2         10.0090    0.5160    2.6280 hc        1 MOL      0.142747
      6 H3          9.1400   -0.4330    3.8570 hc        1 MOL      0.142747
      7 N1          8.4430   -0.0300    0.6810 n         1 MOL     -0.575410
      8 C3          7.4660    0.3140   -0.3790 c3        1 MOL      0.052579
      9 C4          6.8630   -0.9320   -1.1220 c         1 MOL      0.618785
     10 O2          6.6980   -0.9680   -2.3150 o         1 MOL     -0.459258
     11 C5          7.9560    1.4170   -1.3430 c3        1 MOL     -0.117877
     12 C6          9.3100    1.0450   -2.0040 c         1 MOL      0.745108
     13 O3         10.2840    1.3690   -1.3790 o         1 MOL     -0.668171
     14 O4          9.3210    0.4620   -3.1010 o         1 MOL     -0.668171
     15 H4          9.4170   -0.0680    0.4050 hn        1 MOL      0.257457
     16 H5          6.5810    0.7040    0.1110 h1        1 MOL      0.089798
     17 H6          8.1560    2.3320   -0.7860 hc        1 MOL      0.029104
     18 H7          7.2410    1.6770   -2.1130 hc        1 MOL      0.029104
     19 N2          6.6060   -2.0450   -0.4070 n         1 MOL     -0.633735
     20 C7          6.2020   -3.4020   -0.9040 c3        1 MOL      0.172017
     21 C8          4.7280   -3.5460   -1.2550 c         1 MOL      0.443865
     22 O5          4.3730   -4.2860   -2.1530 o         1 MOL     -0.546876
     23 C9          6.7000   -4.5390    0.0440 c3        1 MOL     -0.116840
     24 C10         8.2170   -4.6150    0.2640 c3        1 MOL      0.185339
     25 C11         8.5730   -5.8870    1.0730 c3        1 MOL     -0.196097
     26 C12        10.1310   -5.9610    1.1130 c3        1 MOL      0.008069
     27 N3         10.5530   -6.7000    2.2880 n4        1 MOL     -0.165738
     28 H8          6.5790   -1.8500    0.5840 hn        1 MOL      0.361190
     29 H9          6.6990   -3.6410   -1.8360 h1        1 MOL      0.103939
     30 H10         6.3570   -5.5030   -0.3450 hc        1 MOL      0.014897
     31 H11         6.2540   -4.3640    1.0170 hc        1 MOL      0.014897
     32 H12         8.4310   -3.6900    0.7960 hc        1 MOL     -0.029908
     33 H13         8.7710   -4.6700   -0.6770 hc        1 MOL     -0.029908
     34 H14         8.2560   -6.7010    0.4310 hc        1 MOL      0.086943
     35 H15         8.0240   -5.8760    2.0240 hc        1 MOL      0.086943
     36 H16        10.5270   -4.9370    1.1470 hx        1 MOL      0.093297
     37 H17        10.4410   -6.4430    0.1920 hx        1 MOL      0.093297
     38 H18        10.1670   -7.6310    2.2950 hn        1 MOL      0.220618
     39 H19        11.5430   -6.9170    2.3250 hn        1 MOL      0.220618
     40 H20        10.3950   -6.1850    3.1480 hn        1 MOL      0.220618
     41 N4          3.7350   -2.7590   -0.7940 n         1 MOL     -0.326018
     42 C13         3.6180   -1.7710    0.2880 c3        1 MOL      0.094044
     43 C14         3.7220   -0.2830   -0.1670 c         1 MOL      0.130225
     44 O6          3.9900    0.0170   -1.3350 o         1 MOL     -0.374770
     45 C15         2.2740   -2.0460    0.9650 c3        1 MOL     -0.546387
     46 C16         0.9840   -2.2890    0.0790 c         1 MOL      0.660703
     47 O7          0.6090   -1.3400   -0.6450 o         1 MOL     -0.635539
     48 O8          0.4540   -3.4140    0.1630 o         1 MOL     -0.635539
     49 H21         2.8530   -2.9600   -1.2520 hn        1 MOL      0.341481
     50 H22         4.4100   -1.9110    1.0250 h1        1 MOL      0.098741
     51 H23         1.9930   -1.4320    1.8070 hc        1 MOL      0.147682
     52 H24         2.4660   -2.9980    1.4450 hc        1 MOL      0.147682
     53 N5          3.7050    0.6040    0.8360 n         1 MOL     -0.210380
     54 C17         3.8690    2.0330    0.6550 c3        1 MOL     -0.131607
     55 C18         2.7410    2.7260   -0.1180 c         1 MOL      0.812364
     56 O9          1.7310    2.0760   -0.3090 o         1 MOL     -0.616349
     57 H25         3.8200    0.1880    1.7370 hn        1 MOL      0.299669
     58 H26         4.8000    2.3270    0.1800 h1        1 MOL      0.048781
     59 H27         3.8360    2.3350    1.7070 h1        1 MOL      0.048781
     60 N6          2.8710    4.0080   -0.4560 n         1 MOL     -0.578695
     61 C19         1.9180    5.0090   -0.9600 c3        1 MOL      0.423144
     62 C20         2.2820    6.4260   -0.4620 c         1 MOL      0.401178
     63 O10         3.4440    6.8190   -0.2720 o         1 MOL     -0.525167
     64 C21         1.7100    4.9980   -2.5130 c3        1 MOL     -0.624430
     65 C22         1.3060    3.5820   -3.0440 c         1 MOL      0.852596
     66 O11         2.1090    2.8570   -3.6320 o         1 MOL     -0.674256
     67 O12         0.1290    3.1630   -2.8570 o         1 MOL     -0.674256
     68 H28         3.6950    4.4720   -0.0880 hn        1 MOL      0.263375
     69 H29         1.0180    4.5900   -0.5030 h1        1 MOL     -0.024470
     70 H30         2.5880    5.3850   -3.0180 hc        1 MOL      0.165094
     71 H31         0.9600    5.7190   -2.8430 hc        1 MOL      0.165094
     72 N7          1.3570    7.3740   -0.2280 n         1 MOL     -0.321934
     73 C23        -0.0950    7.2750   -0.4790 c3        1 MOL     -0.223370
     74 C24        -0.8330    6.3310    0.5420 c         1 MOL      0.618717
     75 O13        -0.4670    6.3170    1.7050 o         1 MOL     -0.539213
     76 H32         1.6380    8.2100    0.2710 hn        1 MOL      0.296928
     77 H33        -0.2460    7.0900   -1.5390 h1        1 MOL      0.107249
     78 H34        -0.4230    8.2990   -0.2990 h1        1 MOL      0.107249
     79 N8         -1.8970    5.6710    0.1730 n         1 MOL     -0.518988
     80 C25        -2.6350    4.7370    1.0770 c3        1 MOL      0.032262
     81 C26        -1.7860    3.4100    1.2480 c         1 MOL      0.986255
     82 O14        -1.0660    2.9970    0.3600 o         1 MOL     -0.726234
     83 C27        -4.0180    4.3900    0.4730 c3        1 MOL      0.156013
     84 C28        -4.8000    3.2950    1.1500 c3        1 MOL     -0.291511
     85 O15        -4.0300    4.0540   -0.9150 oh        1 MOL     -0.712207
     86 H35        -2.2070    5.5730   -0.7850 hn        1 MOL      0.326862
     87 H36        -2.7140    5.1600    2.0780 h1        1 MOL      0.046964
     88 H37        -4.6150    5.3030    0.4170 h1        1 MOL      0.045172
     89 H38        -4.8900    4.3150   -1.2490 ho        1 MOL      0.483689
     90 H39        -4.3340    2.3710    0.8080 hc        1 MOL      0.083531
     91 H40        -4.7690    3.4210    2.2310 hc        1 MOL      0.083531
     92 H41        -5.8510    3.3550    0.8900 hc        1 MOL      0.083531
     93 N9         -1.8170    2.9150    2.4830 n         1 MOL     -0.600907
     94 C29        -1.0620    1.7450    3.0440 c3        1 MOL     -0.042784
     95 C30        -1.4200    0.4030    2.3150 c         1 MOL      0.208247
     96 O16        -1.2590    0.2760    1.0860 o         1 MOL     -0.385784
     97 C31         0.4620    1.9830    3.3360 c3        1 MOL      0.504143
     98 C32         0.6890    3.4130    3.9680 c3        1 MOL     -0.025483
     99 C33         0.9670    0.8530    4.1950 c3        1 MOL     -0.502165
    100 C34         2.1220    3.8400    4.4020 c3        1 MOL     -0.036758
    101 H42        -2.3460    3.4580    3.1520 hn        1 MOL      0.279783
    102 H43        -1.3460    1.6640    4.0920 h1        1 MOL      0.035538
    103 H44         1.0160    1.8940    2.4070 hc        1 MOL     -0.112742
    104 H45         0.0890    3.3910    4.8790 hc        1 MOL     -0.028245
    105 H46         0.3020    4.1750    3.2990 hc        1 MOL     -0.028245
    106 H47         0.9580   -0.0770    3.6290 hc        1 MOL      0.091299
    107 H48         2.0170    0.9990    4.4490 hc        1 MOL      0.091299
    108 H49         0.3020    0.6670    5.0460 hc        1 MOL      0.091299
    109 H50         2.8040    3.6300    3.5690 hc        1 MOL      0.018920
    110 H51         2.1310    4.8980    4.6690 hc        1 MOL      0.018920
    111 H52         2.4930    3.3550    5.3080 hc        1 MOL      0.018920
    112 N10        -1.8910   -0.6430    2.9980 n         1 MOL      0.253302
    113 C35        -2.2750   -1.9290    2.3830 c3        1 MOL     -0.661451
    114 C36        -3.8100   -2.0750    2.1660 c         1 MOL      0.578717
    115 O17        -4.2780   -3.0820    1.5730 o         1 MOL     -0.534438
    116 C37        -1.6100   -3.0560    3.0670 c3        1 MOL      0.501648
    117 C38        -0.4210   -2.7670    4.0350 c3        1 MOL     -0.307997
    118 O18        -1.2320   -4.0520    2.2070 oh        1 MOL     -0.627052
    119 H53        -2.1930   -0.4670    3.9530 hn        1 MOL      0.117700
    120 H54        -1.9490   -1.9300    1.3390 h1        1 MOL      0.356392
    121 H55        -2.3380   -3.6540    3.6100 h1        1 MOL      0.018586
    122 H56        -0.7930   -3.6410    1.4490 ho        1 MOL      0.367481
    123 H57         0.3230   -2.1640    3.5010 hc        1 MOL      0.057206
    124 H58        -0.8160   -2.2420    4.9010 hc        1 MOL      0.057206
    125 H59         0.0120   -3.6990    4.4140 hc        1 MOL      0.057206
    126 N11        -4.6610   -1.0750    2.5680 n         1 MOL     -0.425434
    127 C39        -6.0970   -1.2000    2.2450 c3        1 MOL      0.063772
    128 C40        -6.2730   -1.4050    0.7560 c         1 MOL      0.642413
    129 O19        -5.8260   -0.5160    0.0610 o         1 MOL     -0.481467
    130 C41        -6.7210    0.1640    2.5820 c3        1 MOL      0.409863
    131 C42        -8.2600    0.1570    2.4860 c3        1 MOL     -0.509610
    132 O20        -6.4130    0.5310    3.8550 oh        1 MOL     -0.621104
    133 H60        -4.2530   -0.1730    2.7650 hn        1 MOL      0.204509
    134 H61        -6.5430   -2.0040    2.8290 h1        1 MOL      0.049534
    135 H62        -6.2650    0.8450    1.8610 h1        1 MOL     -0.024850
    136 H63        -6.9000    1.3430    3.9880 ho        1 MOL      0.397711
    137 H64        -8.6530   -0.1640    1.5190 hc        1 MOL      0.120810
    138 H65        -8.6550   -0.3450    3.3650 hc        1 MOL      0.120810
    139 H66        -8.5630    1.2020    2.5430 hc        1 MOL      0.120810
    140 N12        -7.0790   -2.4080    0.4250 n         1 MOL     -0.730765
    141 C43        -7.4540   -2.8830   -0.9850 c3        1 MOL      0.443177
    142 C44        -6.4110   -2.5010   -2.1080 c         1 MOL      0.397716
    143 O21        -6.7280   -1.8980   -3.1460 o         1 MOL     -0.501069
    144 C45        -8.8710   -2.3180   -1.3280 c3        1 MOL     -0.454263
    145 C46       -10.0170   -2.7870   -0.4850 c3        1 MOL      0.255122
    146 C47       -11.3190   -2.1660   -0.9000 c3        1 MOL     -0.114265
    147 C48       -12.5050   -2.2290    0.0730 c3        1 MOL      0.038305
    148 N13       -12.9370   -3.6000    0.4060 n4        1 MOL     -0.305256
    149 H67        -7.4170   -2.9960    1.1710 hn        1 MOL      0.312853
    150 H68        -7.4450   -3.9760   -1.0760 h1        1 MOL      0.003635
    151 H69        -9.0760   -2.5560   -2.3780 hc        1 MOL      0.129886
    152 H70        -8.9260   -1.2310   -1.2410 hc        1 MOL      0.129886
    153 H71        -9.8340   -2.6990    0.5810 hc        1 MOL     -0.049657
    154 H72        -9.9580   -3.8660   -0.6030 hc        1 MOL     -0.049657
    155 H73       -11.6620   -2.6260   -1.8320 hc        1 MOL      0.065641
    156 H74       -11.1360   -1.0960   -1.0250 hc        1 MOL      0.065641
    157 H75       -13.2710   -1.6710   -0.4700 hx        1 MOL      0.077521
    158 H76       -12.3020   -1.6410    0.9650 hx        1 MOL      0.077521
    159 H77       -13.2000   -4.1870   -0.3740 hn        1 MOL      0.265715
    160 H78       -12.3560   -4.0280    1.1120 hn        1 MOL      0.265715
    161 H79       -13.8330   -3.5530    0.8590 hn        1 MOL      0.265715
    162 N14        -5.1810   -2.8290   -1.8510 n         1 MOL     -0.570670
    163 C49        -4.1300   -1.9800   -2.4130 c3        1 MOL      0.350652
    164 C50        -2.7420   -2.0940   -1.6900 c         1 MOL      0.492101
    165 O22        -2.2120   -1.0970   -1.2830 o         1 MOL     -0.702594
    166 C51        -3.9540   -2.2100   -3.9470 c3        1 MOL     -0.018396
    167 C52        -2.6660   -1.5770   -4.5090 c3        1 MOL      0.070398
    168 C53        -2.5140   -0.0170   -4.0970 c         1 MOL      0.780968
    169 O23        -3.5360    0.6830   -4.2590 o         1 MOL     -0.713374
    170 O24        -1.3640    0.4070   -3.8060 o         1 MOL     -0.713374
    171 H80        -4.8930   -3.3020   -1.0090 hn        1 MOL      0.328162
    172 H81        -4.4050   -0.9300   -2.2670 h1        1 MOL      0.020976
    173 H82        -4.7240   -1.7770   -4.5870 hc        1 MOL     -0.002971
    174 H83        -3.9150   -3.2720   -4.1540 hc        1 MOL     -0.002971
    175 H84        -2.7240   -1.6370   -5.5920 hc        1 MOL     -0.061695
    176 H85        -1.8290   -2.1060   -4.0490 hc        1 MOL     -0.061695
    177 N15        -2.1740   -3.2700   -1.4250 n         1 MOL     -0.239015
    178 C54        -2.5390   -4.5820   -1.8480 c3        1 MOL     -0.211072
    179 H86        -1.9810   -5.3180   -1.2710 h1        1 MOL      0.072805
    180 H87        -3.6070   -4.7300   -1.6890 h1        1 MOL      0.072805
    181 H88        -2.3100   -4.7000   -2.9070 h1        1 MOL      0.072805
    182 H89        -1.2570   -3.1580   -1.0050 hn        1 MOL      0.305340
    183 Ca1        -0.3760    0.9590   -1.4850 Ca        1 MOL      1.720474
    184 O25        -2.9560    1.4760   -1.6990 oh        1 MOL     -0.869210
    185 H90        -3.2690    1.1640   -2.5480 ho        1 MOL      0.417415
    186 H91        -3.3400    2.3430   -1.5960 ho        1 MOL      0.417415
    187 O26         1.7590    0.3440   -3.0090 oh        1 MOL     -0.869210
    188 H92         2.0550    1.1680   -3.4040 ho        1 MOL      0.417415
    189 H93         2.5300    0.0170   -2.5460 ho        1 MOL      0.417415
@<TRIPOS>BOND
     1    1    2 1   
     2    1    4 1   
     3    1    5 1   
     4    1    6 1   
     5    2    3 2   
     6    2    7 1   
     7    7    8 1   
     8    7   15 1   
     9    8    9 1   
    10    8   11 1   
    11    8   16 1   
    12    9   10 2   
    13    9   19 1   
    14   11   12 1   
    15   11   17 1   
    16   11   18 1   
    17   12   13 1   
    18   12   14 1   
    19   19   20 1   
    20   19   28 1   
    21   20   21 1   
    22   20   23 1   
    23   20   29 1   
    24   21   22 2   
    25   21   41 1   
    26   23   24 1   
    27   23   30 1   
    28   23   31 1   
    29   24   25 1   
    30   24   32 1   
    31   24   33 1   
    32   25   26 1   
    33   25   34 1   
    34   25   35 1   
    35   26   27 1   
    36   26   36 1   
    37   26   37 1   
    38   27   38 1   
    39   27   39 1   
    40   27   40 1   
    41   41   42 1   
    42   41   49 1   
    43   42   43 1   
    44   42   45 1   
    45   42   50 1   
    46   43   44 2   
    47   43   53 1   
    48   45   46 1   
    49   45   51 1   
    50   45   52 1   
    51   46   47 1   
    52   46   48 1   
    53   53   54 1   
    54   53   57 1   
    55   54   55 1   
    56   54   58 1   
    57   54   59 1   
    58   55   56 2   
    59   55   60 1   
    60   60   61 1   
    61   60   68 1   
    62   61   62 1   
    63   61   64 1   
    64   61   69 1   
    65   62   63 2   
    66   62   72 1   
    67   64   65 1   
    68   64   70 1   
    69   64   71 1   
    70   65   66 1   
    71   65   67 1   
    72   72   73 1   
    73   72   76 1   
    74   73   74 1   
    75   73   77 1   
    76   73   78 1   
    77   74   75 2   
    78   74   79 1   
    79   79   80 1   
    80   79   86 1   
    81   80   81 1   
    82   80   83 1   
    83   80   87 1   
    84   81   82 2   
    85   81   93 1   
    86   83   84 1   
    87   83   85 1   
    88   83   88 1   
    89   84   90 1   
    90   84   91 1   
    91   84   92 1   
    92   85   89 1   
    93   93   94 1   
    94   93  101 1   
    95   94   95 1   
    96   94   97 1   
    97   94  102 1   
    98   95   96 2   
    99   95  112 1   
   100   97   98 1   
   101   97   99 1   
   102   97  103 1   
   103   98  100 1   
   104   98  104 1   
   105   98  105 1   
   106   99  106 1   
   107   99  107 1   
   108   99  108 1   
   109  100  109 1   
   110  100  110 1   
   111  100  111 1   
   112  112  113 1   
   113  112  119 1   
   114  113  114 1   
   115  113  116 1   
   116  113  120 1   
   117  114  115 2   
   118  114  126 1   
   119  116  117 1   
   120  116  118 1   
   121  116  121 1   
   122  117  123 1   
   123  117  124 1   
   124  117  125 1   
   125  118  122 1   
   126  126  127 1   
   127  126  133 1   
   128  127  128 1   
   129  127  130 1   
   130  127  134 1   
   131  128  129 2   
   132  128  140 1   
   133  130  131 1   
   134  130  132 1   
   135  130  135 1   
   136  131  137 1   
   137  131  138 1   
   138  131  139 1   
   139  132  136 1   
   140  140  141 1   
   141  140  149 1   
   142  141  142 1   
   143  141  144 1   
   144  141  150 1   
   145  142  143 2   
   146  142  162 1   
   147  144  145 1   
   148  144  151 1   
   149  144  152 1   
   150  145  146 1   
   151  145  153 1   
   152  145  154 1   
   153  146  147 1   
   154  146  155 1   
   155  146  156 1   
   156  147  148 1   
   157  147  157 1   
   158  147  158 1   
   159  148  159 1   
   160  148  160 1   
   161  148  161 1   
   162  162  163 1   
   163  162  171 1   
   164  163  164 1   
   165  163  166 1   
   166  163  172 1   
   167  164  165 2   
   168  164  177 1   
   169  166  167 1   
   170  166  173 1   
   171  166  174 1   
   172  167  168 1   
   173  167  175 1   
   174  167  176 1   
   175  168  169 1   
   176  168  170 1   
   177  177  178 1   
   178  177  182 1   
   179  178  179 1   
   180  178  180 1   
   181  178  181 1   
   182  184  185 1   
   183  184  186 1   
   184  187  188 1   
   185  187  189 1   
@<TRIPOS>SUBSTRUCTURE
     1 MOL         1 TEMP              0 ****  ****    0 ROOT
