@<TRIPOS>MOLECULE
MOL
  182   178     1     0     0
SMALL
resp


@<TRIPOS>ATOM
      1 C1          0.4600   -4.5430    5.8870 c3        1 MOL     -0.305256
      2 C2          0.5780   -4.3400    4.3240 c         1 MOL      0.753881
      3 O1         -0.4280   -4.3550    3.6250 o         1 MOL     -0.601096
      4 H1         -0.3660   -3.9450    6.2690 hc        1 MOL      0.082438
      5 H2          0.2780   -5.5950    6.1050 hc        1 MOL      0.082438
      6 H3          1.3870   -4.2270    6.3660 hc        1 MOL      0.082438
      7 N1          1.7810   -3.9940    3.8490 n         1 MOL     -0.650737
      8 C3          2.0670   -3.4150    2.4890 c3        1 MOL      0.021824
      9 C4          2.3040   -4.6600    1.6060 c         1 MOL      0.667493
     10 O2          3.0640   -5.5920    1.9450 o         1 MOL     -0.538760
     11 C5          3.1840   -2.4570    2.5400 c3        1 MOL      0.019473
     12 C6          3.4060   -1.6310    1.2390 c         1 MOL      0.471694
     13 O3          3.9250   -0.4730    1.3010 o         1 MOL     -0.692858
     14 O4          2.9640   -1.9980    0.1470 o         1 MOL     -0.692858
     15 H4          2.4870   -3.8040    4.5450 hn        1 MOL      0.336878
     16 H5          1.1470   -2.9350    2.1350 h1        1 MOL     -0.116184
     17 H6          4.0680   -3.0920    2.5660 hc        1 MOL      0.026199
     18 H7          3.1270   -1.7750    3.3850 hc        1 MOL      0.026199
     19 N2          1.7880   -4.4620    0.3740 n         1 MOL     -0.415878
     20 C7          2.0320   -5.2680   -0.8470 c3        1 MOL     -0.149656
     21 C8          3.3490   -5.0870   -1.6210 c         1 MOL      0.619387
     22 O5          3.8490   -6.0680   -2.1760 o         1 MOL     -0.573245
     23 C9          0.7740   -5.0750   -1.7190 c3        1 MOL      0.124097
     24 C10        -0.4720   -5.7130   -1.0300 c3        1 MOL      0.119212
     25 C11        -1.6110   -5.7340   -2.0270 c3        1 MOL     -0.098658
     26 C12        -2.6050   -6.8190   -1.5390 c3        1 MOL      0.096412
     27 N3         -3.7750   -6.9950   -2.4660 n4        1 MOL     -0.288037
     28 H8          1.3890   -3.5500    0.2040 hn        1 MOL      0.320958
     29 H9          2.1340   -6.3070   -0.5230 h1        1 MOL      0.111491
     30 H10         1.0320   -5.7020   -2.5730 hc        1 MOL     -0.027698
     31 H11         0.6220   -4.0570   -2.0890 hc        1 MOL     -0.027698
     32 H12        -0.7340   -5.0510   -0.2020 hc        1 MOL     -0.009331
     33 H13        -0.2430   -6.7200   -0.6690 hc        1 MOL     -0.009331
     34 H14        -1.2000   -5.9970   -3.0020 hc        1 MOL      0.018558
     35 H15        -2.0340   -4.7320   -2.1170 hc        1 MOL      0.018558
     36 H16        -2.9950   -6.4780   -0.5700 hx        1 MOL      0.061270
     37 H17        -2.0540   -7.7400   -1.3690 hx        1 MOL      0.061270
     38 H18        -3.3390   -7.2690   -3.3280 hn        1 MOL      0.258503
     39 H19        -4.4960   -7.6020   -2.1120 hn        1 MOL      0.258503
     40 H20        -4.2420   -6.1020   -2.5960 hn        1 MOL      0.258503
     41 N4          4.0000   -3.9210   -1.6760 n         1 MOL     -0.369974
     42 C13         5.2930   -3.6460   -2.4230 c3        1 MOL     -0.028480
     43 C14         6.4630   -3.1650   -1.5560 c         1 MOL      0.268794
     44 O6          7.6160   -3.0350   -2.0060 o         1 MOL     -0.489146
     45 C15         4.9760   -2.6330   -3.5070 c3        1 MOL     -0.238427
     46 C16         4.2480   -1.3320   -2.9700 c         1 MOL      0.878482
     47 O7          4.7610   -0.7510   -2.0190 o         1 MOL     -0.769174
     48 O8          3.2870   -0.9150   -3.5300 o         1 MOL     -0.769174
     49 H21         3.5610   -3.1660   -1.1710 hn        1 MOL      0.161451
     50 H22         5.6320   -4.5210   -2.9760 h1        1 MOL      0.158493
     51 H23         4.2570   -3.1030   -4.1780 hc        1 MOL      0.067672
     52 H24         5.8190   -2.3290   -4.1310 hc        1 MOL      0.067672
     53 N5          6.1400   -2.9940   -0.3040 n         1 MOL      0.056344
     54 C17         6.9680   -2.6770    0.8270 c3        1 MOL     -0.425666
     55 C18         7.4590   -1.2260    0.9040 c         1 MOL      0.640057
     56 O9          8.2880   -0.8360    1.7390 o         1 MOL     -0.552043
     57 H25         5.2550   -3.3740   -0.0020 hn        1 MOL      0.191787
     58 H26         7.8380   -3.3280    0.7620 h1        1 MOL      0.156706
     59 H27         6.3300   -2.9690    1.6590 h1        1 MOL      0.156706
     60 N6          6.7850   -0.3180    0.1730 n         1 MOL     -0.270361
     61 C19         7.1980    1.1030   -0.0500 c3        1 MOL     -0.043324
     62 C20         6.0380    2.1180   -0.0300 c         1 MOL      0.436941
     63 O10         4.8400    1.8520   -0.1840 o         1 MOL     -0.450903
     64 C21         7.9360    1.2540   -1.3970 c3        1 MOL     -0.169205
     65 C22         9.2340    0.4110   -1.4830 c         1 MOL      0.647731
     66 N7          9.2160   -0.8180   -2.0470 n         1 MOL     -0.848099
     67 O11        10.2220    0.8170   -0.9370 o         1 MOL     -0.545723
     68 H28         6.0240   -0.6320   -0.4050 hn        1 MOL      0.263162
     69 H29         7.9140    1.3160    0.7410 h1        1 MOL      0.090149
     70 H30         8.2110    2.3030   -1.5440 hc        1 MOL      0.036927
     71 H31         7.2680    0.9230   -2.1900 hc        1 MOL      0.036927
     72 H32         8.3580   -1.2700   -2.3220 hn        1 MOL      0.388448
     73 H33        10.1070   -1.3030   -2.0860 hn        1 MOL      0.388448
     74 N8          6.3990    3.3090    0.3660 n         1 MOL     -0.254985
     75 C23         5.6090    4.5390    0.2820 c3        1 MOL     -0.258647
     76 C24         4.3260    4.4720    1.1480 c         1 MOL      0.596206
     77 O12         4.3860    4.0020    2.2920 o         1 MOL     -0.496402
     78 H34         7.3570    3.4670    0.6430 hn        1 MOL      0.294022
     79 H35         5.3880    4.7740   -0.7570 h1        1 MOL      0.113608
     80 H36         6.2110    5.2860    0.7930 h1        1 MOL      0.113608
     81 N9          3.2130    4.9190    0.5680 n         1 MOL     -0.432043
     82 C25         1.8640    4.7410    1.0520 c3        1 MOL     -0.053687
     83 C26         1.5020    3.2350    1.2560 c         1 MOL      0.683384
     84 O13         2.1780    2.3970    0.6760 o         1 MOL     -0.543571
     85 C27         1.0090    5.3040   -0.1090 c3        1 MOL     -0.080388
     86 C28         1.1730    6.7930   -0.2790 ca        1 MOL      0.130055
     87 C29         1.5930    7.2800   -1.5430 ca        1 MOL     -0.218985
     88 C30         0.7760    7.7210    0.7200 ca        1 MOL     -0.218985
     89 C31         1.7330    8.6680   -1.6990 ca        1 MOL     -0.208288
     90 C32         0.8840    9.0970    0.5050 ca        1 MOL     -0.208288
     91 C33         1.4540    9.5810   -0.6860 ca        1 MOL      0.309571
     92 O14         1.6720   10.8720   -0.8630 oh        1 MOL     -0.423771
     93 H37         3.2980    5.3350   -0.3500 hn        1 MOL      0.210609
     94 H38         1.7770    5.3930    1.9270 h1        1 MOL      0.119901
     95 H39        -0.0330    5.1600    0.1670 hc        1 MOL      0.036649
     96 H40         1.1860    4.7390   -1.0200 hc        1 MOL      0.036649
     97 H41         1.8750    6.6110   -2.3490 ha        1 MOL      0.147150
     98 H42         0.3690    7.4030    1.6700 ha        1 MOL      0.147150
     99 H43         2.1670    9.0190   -2.6200 ha        1 MOL      0.144711
    100 H44         0.5260    9.8000    1.2380 ha        1 MOL      0.144711
    101 H45         2.4120   10.9430   -1.4760 ho        1 MOL      0.331834
    102 N10         0.4310    2.9250    2.0280 n         1 MOL     -0.805239
    103 C34         0.0880    1.6450    2.5840 c3        1 MOL      0.463612
    104 C35        -0.1320    0.5900    1.4570 c         1 MOL      0.362185
    105 O15         0.7960   -0.0890    0.9690 o         1 MOL     -0.539706
    106 C36         1.1420    1.1480    3.5750 c3        1 MOL      0.050513
    107 C37         0.6350   -0.1820    4.1920 c3        1 MOL      0.171118
    108 C38         1.4080    2.2160    4.6380 c3        1 MOL     -0.337362
    109 C39        -0.6290   -0.2150    4.9840 c3        1 MOL     -0.107832
    110 H46         0.0950    3.7430    2.5310 hn        1 MOL      0.337230
    111 H47        -0.8460    1.7840    3.1110 h1        1 MOL      0.010678
    112 H48         2.0060    1.0540    2.9180 hc        1 MOL      0.081477
    113 H49         1.3650   -0.4960    4.9410 hc        1 MOL      0.006713
    114 H50         0.7340   -1.0600    3.5620 hc        1 MOL      0.006713
    115 H51         1.5710    3.2440    4.3220 hc        1 MOL      0.076823
    116 H52         0.5360    2.2160    5.2970 hc        1 MOL      0.076823
    117 H53         2.3200    1.8600    5.1110 hc        1 MOL      0.076823
    118 H54        -1.5220   -0.1780    4.3690 hc        1 MOL      0.010676
    119 H55        -0.5920   -1.1610    5.5240 hc        1 MOL      0.010676
    120 H56        -0.7460    0.6650    5.6170 hc        1 MOL      0.010676
    121 N11        -1.3960    0.3670    1.0290 n         1 MOL     -0.365196
    122 C40        -1.8620   -0.5910   -0.0110 c3        1 MOL      0.050073
    123 C41        -3.2670   -0.3670   -0.6560 c         1 MOL      0.667225
    124 O16        -3.4110   -0.6640   -1.8380 o         1 MOL     -0.531792
    125 C42        -1.8420   -1.9840    0.7360 c3        1 MOL      0.104932
    126 O17        -2.9920   -2.1080    1.5600 oh        1 MOL     -0.649962
    127 H57        -2.1340    0.8540    1.5140 hn        1 MOL      0.213217
    128 H58        -1.2040   -0.6680   -0.8790 h1        1 MOL      0.044697
    129 H59        -1.0230   -2.0060    1.4500 h1        1 MOL      0.058802
    130 H60        -1.9230   -2.7610   -0.0310 h1        1 MOL      0.058802
    131 H61        -3.1960   -3.0460    1.5970 ho        1 MOL      0.435451
    132 N12        -4.1270    0.3450    0.0870 n         1 MOL     -0.635994
    133 C43        -5.5500    0.5670   -0.2380 c3        1 MOL      0.063250
    134 C44        -5.7660    1.3830   -1.5930 c         1 MOL      0.679629
    135 O18        -4.9760    2.2520   -1.9310 o         1 MOL     -0.560133
    136 C45        -6.2170    1.2690    0.9120 c3        1 MOL     -0.398378
    137 H62        -3.9820    0.3640    1.0880 hn        1 MOL      0.382683
    138 H63        -6.0170   -0.4070   -0.4210 h1        1 MOL      0.084328
    139 H64        -5.4960    2.0240    1.2490 hc        1 MOL      0.130222
    140 H65        -7.1760    1.6380    0.5550 hc        1 MOL      0.130222
    141 H66        -6.4930    0.6490    1.7640 hc        1 MOL      0.130222
    142 N13        -6.7750    1.1220   -2.4160 n         1 MOL     -0.666108
    143 C46        -8.0050    0.4040   -2.1020 c3        1 MOL      0.373526
    144 C47        -9.2480    1.1570   -2.5700 c         1 MOL      0.422388
    145 O19        -9.3110    1.9260   -3.5230 o         1 MOL     -0.535464
    146 C48        -7.8910   -1.0330   -2.6900 c3        1 MOL     -0.175939
    147 H67        -6.7030    1.6130   -3.2950 hn        1 MOL      0.343477
    148 H68        -8.0720    0.2960   -1.0230 h1        1 MOL     -0.032391
    149 H69        -8.7820   -1.6350   -2.4740 hc        1 MOL      0.046086
    150 H70        -7.8650   -0.9960   -3.7850 hc        1 MOL      0.046086
    151 H71        -7.0230   -1.5920   -2.3320 hc        1 MOL      0.046086
    152 N14       -10.3670    1.0550   -1.8490 n         1 MOL     -0.407354
    153 C49       -10.5830    0.3160   -0.5930 c3        1 MOL     -0.176246
    154 C50       -10.0690    1.1230    0.6150 c         1 MOL      0.430501
    155 O20        -9.7110    0.5570    1.6240 o         1 MOL     -0.478764
    156 C51       -12.0560   -0.1500   -0.6120 c3        1 MOL      0.009176
    157 C52       -12.4220   -0.7430    0.7750 c3        1 MOL     -0.184257
    158 C53       -13.5470   -1.7280    0.8320 c         1 MOL      0.704128
    159 O21       -14.5530   -1.4650    1.5360 o         1 MOL     -0.662752
    160 O22       -13.4480   -2.7970    0.1350 o         1 MOL     -0.662752
    161 H72       -11.1790    1.3670   -2.3710 hn        1 MOL      0.298066
    162 H73       -10.0120   -0.6030   -0.6760 h1        1 MOL      0.133821
    163 H74       -12.0640   -1.0030   -1.2770 hc        1 MOL      0.035582
    164 H75       -12.8070    0.5130   -1.0390 hc        1 MOL      0.035582
    165 H76       -12.8130    0.1330    1.2920 hc        1 MOL      0.049286
    166 H77       -11.6130   -1.1330    1.3980 hc        1 MOL      0.049286
    167 N15       -10.0970    2.4200    0.3980 n         1 MOL     -0.184120
    168 C54        -9.4950    3.3360    1.3140 c3        1 MOL     -0.199104
    169 H78       -10.2090    3.5860    2.0990 h1        1 MOL      0.088506
    170 H79        -8.6130    2.8770    1.7600 h1        1 MOL      0.088506
    171 H80        -9.2050    4.2440    0.7840 h1        1 MOL      0.088506
    172 H81       -10.6560    2.8220   -0.3490 hn        1 MOL      0.245959
    173 Ca1         2.7560    0.4360   -0.9380 Ca        1 MOL      1.836142
    174 O23         0.5010    1.6480   -1.9470 oh        1 MOL     -0.856658
    175 H82        -0.4240    1.7310   -1.6980 ho        1 MOL      0.420709
    176 H83         0.5510    2.0850   -2.7980 ho        1 MOL      0.420709
    177 O24         1.0150   -1.1430   -2.3810 oh        1 MOL     -0.856658
    178 H84         0.4350   -1.7900   -2.7930 ho        1 MOL      0.420709
    179 H85         1.7280   -1.0410   -3.0140 ho        1 MOL      0.420709
    180 O25         3.4510    2.3460   -2.8000 oh        1 MOL     -0.856658
    181 H86         3.3170    2.4020   -3.7440 ho        1 MOL      0.420709
    182 H87         3.7820    3.2150   -2.5590 ho        1 MOL      0.420709
@<TRIPOS>BOND
     1    1    2 1   
     2    1    4 1   
     3    1    5 1   
     4    1    6 1   
     5    2    3 2   
     6    2    7 1   
     7    7    8 1   
     8    7   15 1   
     9    8    9 1   
    10    8   11 1   
    11    8   16 1   
    12    9   10 2   
    13    9   19 1   
    14   11   12 1   
    15   11   17 1   
    16   11   18 1   
    17   12   13 1   
    18   12   14 1   
    19   19   20 1   
    20   19   28 1   
    21   20   21 1   
    22   20   23 1   
    23   20   29 1   
    24   21   22 2   
    25   21   41 1   
    26   23   24 1   
    27   23   30 1   
    28   23   31 1   
    29   24   25 1   
    30   24   32 1   
    31   24   33 1   
    32   25   26 1   
    33   25   34 1   
    34   25   35 1   
    35   26   27 1   
    36   26   36 1   
    37   26   37 1   
    38   27   38 1   
    39   27   39 1   
    40   27   40 1   
    41   41   42 1   
    42   41   49 1   
    43   42   43 1   
    44   42   45 1   
    45   42   50 1   
    46   43   44 2   
    47   43   53 1   
    48   45   46 1   
    49   45   51 1   
    50   45   52 1   
    51   46   47 1   
    52   46   48 1   
    53   53   54 1   
    54   53   57 1   
    55   54   55 1   
    56   54   58 1   
    57   54   59 1   
    58   55   56 2   
    59   55   60 1   
    60   60   61 1   
    61   60   68 1   
    62   61   62 1   
    63   61   64 1   
    64   61   69 1   
    65   62   63 2   
    66   62   74 1   
    67   64   65 1   
    68   64   70 1   
    69   64   71 1   
    70   65   66 1   
    71   65   67 2   
    72   66   72 1   
    73   66   73 1   
    74   74   75 1   
    75   74   78 1   
    76   75   76 1   
    77   75   79 1   
    78   75   80 1   
    79   76   77 2   
    80   76   81 1   
    81   81   82 1   
    82   81   93 1   
    83   82   83 1   
    84   82   85 1   
    85   82   94 1   
    86   83   84 2   
    87   83  102 1   
    88   85   86 1   
    89   85   95 1   
    90   85   96 1   
    91   86   87 ar  
    92   86   88 ar  
    93   87   89 ar  
    94   87   97 1   
    95   88   90 ar  
    96   88   98 1   
    97   89   91 ar  
    98   89   99 1   
    99   90   91 ar  
   100   90  100 1   
   101   91   92 1   
   102   92  101 1   
   103  102  103 1   
   104  102  110 1   
   105  103  104 1   
   106  103  106 1   
   107  103  111 1   
   108  104  105 2   
   109  104  121 1   
   110  106  107 1   
   111  106  108 1   
   112  106  112 1   
   113  107  109 1   
   114  107  113 1   
   115  107  114 1   
   116  108  115 1   
   117  108  116 1   
   118  108  117 1   
   119  109  118 1   
   120  109  119 1   
   121  109  120 1   
   122  121  122 1   
   123  121  127 1   
   124  122  123 1   
   125  122  125 1   
   126  122  128 1   
   127  123  124 2   
   128  123  132 1   
   129  125  126 1   
   130  125  129 1   
   131  125  130 1   
   132  126  131 1   
   133  132  133 1   
   134  132  137 1   
   135  133  134 1   
   136  133  136 1   
   137  133  138 1   
   138  134  135 2   
   139  134  142 1   
   140  136  139 1   
   141  136  140 1   
   142  136  141 1   
   143  142  143 1   
   144  142  147 1   
   145  143  144 1   
   146  143  146 1   
   147  143  148 1   
   148  144  145 2   
   149  144  152 1   
   150  146  149 1   
   151  146  150 1   
   152  146  151 1   
   153  152  153 1   
   154  152  161 1   
   155  153  154 1   
   156  153  156 1   
   157  153  162 1   
   158  154  155 2   
   159  154  167 1   
   160  156  157 1   
   161  156  163 1   
   162  156  164 1   
   163  157  158 1   
   164  157  165 1   
   165  157  166 1   
   166  158  159 1   
   167  158  160 1   
   168  167  168 1   
   169  167  172 1   
   170  168  169 1   
   171  168  170 1   
   172  168  171 1   
   173  174  175 1   
   174  174  176 1   
   175  177  178 1   
   176  177  179 1   
   177  180  181 1   
   178  180  182 1   
@<TRIPOS>SUBSTRUCTURE
     1 MOL         1 TEMP              0 ****  ****    0 ROOT
