@<TRIPOS>MOLECULE
MOL
  181   177     1     0     0
SMALL
resp


@<TRIPOS>ATOM
      1 C1          4.9640   -1.2410    3.0380 c3        1 MOL     -0.532121
      2 C2          6.1890   -0.3870    2.6770 c         1 MOL      0.685994
      3 O1          6.1320    0.3980    1.6980 o         1 MOL     -0.588126
      4 H1          4.8730   -1.3050    4.1220 hc        1 MOL      0.147685
      5 H2          4.0650   -0.7810    2.6250 hc        1 MOL      0.147685
      6 H3          5.0830   -2.2420    2.6230 hc        1 MOL      0.147685
      7 N1          7.2910   -0.5820    3.3760 n         1 MOL     -0.498271
      8 C3          8.5640   -0.0570    3.0130 c3        1 MOL      0.096403
      9 C4          8.9950   -0.4610    1.6530 c         1 MOL      0.675997
     10 O2          9.2230   -1.6890    1.3970 o         1 MOL     -0.582454
     11 C5          9.5480   -0.6120    4.0670 c3        1 MOL     -0.358148
     12 C6         11.0430   -0.2360    3.8700 c         1 MOL      0.744879
     13 O3         11.4100    0.6540    3.0300 o         1 MOL     -0.719987
     14 O4         11.8350   -0.8400    4.6340 o         1 MOL     -0.719987
     15 H4          7.1960   -1.2950    4.0950 hn        1 MOL      0.300516
     16 H5          8.5080    1.0290    3.0640 h1        1 MOL      0.043578
     17 H6          9.5400   -1.6930    3.9660 hc        1 MOL      0.077038
     18 H7          9.0040   -0.3810    4.9860 hc        1 MOL      0.077038
     19 N2          8.9320    0.4050    0.6540 n         1 MOL     -0.613871
     20 C7          9.1740    0.0350   -0.7330 c3        1 MOL      0.330808
     21 C8          7.9770   -0.3760   -1.4920 c         1 MOL      0.143548
     22 O5          8.1140   -0.8750   -2.6650 o         1 MOL     -0.494225
     23 C9          9.8730    1.2270   -1.4320 c3        1 MOL     -0.285989
     24 H8          8.4090    1.2560    0.7940 hn        1 MOL      0.298718
     25 H9          9.8980   -0.7800   -0.7490 h1        1 MOL      0.091618
     26 H10        10.8490    1.4330   -0.9990 hc        1 MOL      0.071276
     27 H11        10.0530    1.1160   -2.5070 hc        1 MOL      0.071276
     28 H12         9.3740    2.1710   -1.2390 hc        1 MOL      0.071276
     29 N3          6.8180   -0.3950   -0.8210 n         1 MOL     -0.103750
     30 C10         5.5910   -1.0280   -1.3110 c3        1 MOL      0.109558
     31 C11         5.0960   -0.3160   -2.6330 c         1 MOL      0.485864
     32 O6          4.8570   -0.9110   -3.6940 o         1 MOL     -0.523370
     33 C12         5.5600   -2.5860   -1.2240 c3        1 MOL     -0.019591
     34 C13         4.2290   -3.3120   -1.2860 c         1 MOL      0.632717
     35 O7          4.1810   -4.5490   -1.4160 o         1 MOL     -0.722470
     36 O8          3.1240   -2.6590   -1.3280 o         1 MOL     -0.722470
     37 H13         6.8860   -0.1470    0.1580 hn        1 MOL      0.149027
     38 H14         4.8320   -0.7410   -0.5720 h1        1 MOL     -0.015465
     39 H15         6.0580   -2.9170   -0.3130 hc        1 MOL      0.025792
     40 H16         6.1430   -3.0010   -2.0540 hc        1 MOL      0.025792
     41 N4          5.1980    1.0300   -2.6120 n         1 MOL     -0.222153
     42 C14         5.2260    1.9630   -3.7730 c3        1 MOL     -0.104010
     43 C15         3.8540    2.5830   -4.2020 c         1 MOL      0.528171
     44 O9          3.8440    3.6490   -4.9120 o         1 MOL     -0.604405
     45 H17         5.3840    1.4560   -1.7130 hn        1 MOL      0.189226
     46 H18         5.5960    1.4320   -4.6610 h1        1 MOL      0.086440
     47 H19         5.9330    2.7660   -3.5990 h1        1 MOL      0.086440
     48 N5          2.7220    2.1700   -3.6300 n         1 MOL     -0.285126
     49 C16         1.3960    2.8420   -3.6590 c3        1 MOL     -0.027326
     50 C17         1.4260    3.9750   -2.6140 c         1 MOL      0.582195
     51 O10         1.8440    3.7680   -1.4590 o         1 MOL     -0.515298
     52 C18         0.3230    1.7320   -3.3990 c3        1 MOL     -0.227735
     53 C19        -1.0870    2.2840   -3.3030 c         1 MOL      0.622129
     54 N6         -1.6040    2.7780   -2.1760 n         1 MOL     -0.802272
     55 O11        -1.7810    2.3370   -4.2930 o         1 MOL     -0.583956
     56 H20         2.8060    1.4510   -2.9340 hn        1 MOL      0.166277
     57 H21         1.3030    3.2690   -4.6570 h1        1 MOL      0.079797
     58 H22         0.4590    1.2180   -2.4480 hc        1 MOL      0.134368
     59 H23         0.3390    1.0470   -4.2480 hc        1 MOL      0.134368
     60 H24        -1.0060    2.7400   -1.3590 hn        1 MOL      0.365432
     61 H25        -2.4880    3.2750   -2.2150 hn        1 MOL      0.365432
     62 N7          0.8570    5.1370   -2.9850 n         1 MOL     -0.423681
     63 C20         0.8030    6.2230   -2.0510 c3        1 MOL     -0.070337
     64 C21        -0.5360    6.2840   -1.4080 c         1 MOL      0.578599
     65 O12        -1.5860    5.8920   -1.9720 o         1 MOL     -0.507189
     66 H26         0.2390    5.2150   -3.7930 hn        1 MOL      0.309165
     67 H27         0.7810    7.1870   -2.5510 h1        1 MOL      0.069281
     68 H28         1.4800    6.1680   -1.2000 h1        1 MOL      0.069281
     69 N8         -0.5360    6.7330   -0.1240 n         1 MOL     -0.392507
     70 C22        -1.7820    6.9870    0.6760 c3        1 MOL     -0.384935
     71 C23        -2.3530    5.7490    1.3810 c         1 MOL      0.623493
     72 O13        -3.5720    5.7720    1.7020 o         1 MOL     -0.589367
     73 C24        -1.4620    8.0730    1.7420 c3        1 MOL      0.457933
     74 C25        -0.4750    7.7150    2.8780 c3        1 MOL     -0.306654
     75 O14        -0.9840    9.2430    1.1840 oh        1 MOL     -0.583789
     76 H29         0.3450    7.0190    0.2770 hn        1 MOL      0.272065
     77 H30        -2.6110    7.2630    0.0190 h1        1 MOL      0.187807
     78 H31        -2.3320    8.2210    2.3820 h1        1 MOL      0.039187
     79 H32        -0.1770    8.9370    0.7680 ho        1 MOL      0.343392
     80 H33        -0.8680    6.8680    3.4500 hc        1 MOL      0.071286
     81 H34         0.5070    7.3350    2.6110 hc        1 MOL      0.071286
     82 H35        -0.4210    8.5610    3.5600 hc        1 MOL      0.071286
     83 N9         -1.6140    4.6520    1.5300 n         1 MOL     -0.320994
     84 C26        -2.0220    3.3140    2.0170 c3        1 MOL      0.048577
     85 C27        -1.5160    2.2270    1.0480 c         1 MOL      0.495358
     86 O15        -0.3990    2.2710    0.4960 o         1 MOL     -0.522124
     87 C28        -1.6040    3.2550    3.4410 c3        1 MOL      0.171676
     88 C29        -2.6300    3.9720    4.3360 c3        1 MOL      0.110188
     89 C30        -1.5600    1.8180    3.9650 c3        1 MOL     -0.145088
     90 C31        -2.1590    4.4330    5.7760 c3        1 MOL     -0.326880
     91 H36        -0.6380    4.6650    1.2380 hn        1 MOL      0.202141
     92 H37        -3.1030    3.2120    2.0660 h1        1 MOL     -0.015357
     93 H38        -0.6240    3.7000    3.6060 hc        1 MOL     -0.007680
     94 H39        -3.4800    3.3180    4.5700 hc        1 MOL     -0.012258
     95 H40        -3.0040    4.8730    3.8510 hc        1 MOL     -0.012258
     96 H41        -2.5470    1.4070    3.7430 hc        1 MOL      0.024355
     97 H42        -0.7850    1.2390    3.4630 hc        1 MOL      0.024355
     98 H43        -1.3500    1.7150    5.0310 hc        1 MOL      0.024355
     99 H44        -1.9950    3.5330    6.3570 hc        1 MOL      0.077918
    100 H45        -1.2660    5.0230    5.5660 hc        1 MOL      0.077918
    101 H46        -2.9710    5.0500    6.1470 hc        1 MOL      0.077918
    102 N10        -2.3330    1.2330    0.8830 n         1 MOL     -0.458344
    103 C32        -2.1630    0.0500   -0.0370 c3        1 MOL      0.020335
    104 C33        -3.5690   -0.4710   -0.3200 c         1 MOL      0.642814
    105 O16        -3.7710   -1.6680   -0.5230 o         1 MOL     -0.492998
    106 C34        -1.2600   -0.9990    0.7050 c3        1 MOL     -0.187989
    107 C35        -0.4880   -1.8040   -0.3500 c         1 MOL      0.821348
    108 O17        -0.0550   -2.9270   -0.0200 o         1 MOL     -0.764296
    109 O18        -0.2920   -1.3790   -1.5050 o         1 MOL     -0.764296
    110 H47        -3.1480    1.2770    1.4820 hn        1 MOL      0.300783
    111 H48        -1.7740    0.3850   -0.9940 h1        1 MOL      0.136365
    112 H49        -1.7770   -1.5840    1.4600 hc        1 MOL      0.089237
    113 H50        -0.4700   -0.4630    1.2280 hc        1 MOL      0.089237
    114 N11        -4.6020    0.4250   -0.3740 n         1 MOL     -0.635325
    115 C36        -6.0300    0.1710   -0.5720 c3        1 MOL      0.445243
    116 C37        -6.5400   -0.9890    0.3880 c         1 MOL      0.019442
    117 O19        -6.2380   -0.9520    1.5980 o         1 MOL     -0.402144
    118 C38        -6.8220    1.4400   -0.3250 c3        1 MOL     -0.338639
    119 C39        -8.3120    1.4500   -0.6680 ca        1 MOL      0.110639
    120 C40        -8.8120    2.0320   -1.7600 ca        1 MOL     -0.119296
    121 C41        -9.2610    0.8250    0.1270 ca        1 MOL     -0.119296
    122 C42       -10.1350    1.9890   -2.1520 ca        1 MOL     -0.140927
    123 C43       -10.6190    0.7840   -0.1470 ca        1 MOL     -0.140927
    124 C44       -11.0500    1.3770   -1.3470 ca        1 MOL     -0.075695
    125 H51        -4.3750    1.3410   -0.0280 hn        1 MOL      0.268608
    126 H52        -6.2640   -0.1290   -1.5940 h1        1 MOL     -0.001066
    127 H53        -6.3030    2.2060   -0.9040 hc        1 MOL      0.123348
    128 H54        -6.7190    1.6720    0.7360 hc        1 MOL      0.123348
    129 H55        -8.0480    2.5500   -2.3170 ha        1 MOL      0.100866
    130 H56        -8.9590    0.4210    1.0840 ha        1 MOL      0.100866
    131 H57       -10.5030    2.3540   -3.1010 ha        1 MOL      0.117425
    132 H58       -11.2990    0.2790    0.5200 ha        1 MOL      0.117425
    133 H59       -12.0780    1.3920   -1.6770 ha        1 MOL      0.092878
    134 N12        -7.3840   -1.9690   -0.0940 n         1 MOL      0.009127
    135 C45        -7.8280   -3.0840    0.7290 c3        1 MOL      0.182016
    136 C46        -6.8330   -3.9320    1.4500 c         1 MOL      0.225902
    137 O20        -7.1180   -4.5140    2.4890 o         1 MOL     -0.524736
    138 C47        -8.5260   -3.9560   -0.3360 c3        1 MOL     -0.037269
    139 C48        -9.2710   -2.9140   -1.1610 c3        1 MOL     -0.134345
    140 C49        -8.2230   -1.9070   -1.3240 c3        1 MOL      0.065225
    141 H60        -8.6290   -2.7920    1.4020 h1        1 MOL      0.037169
    142 H61        -7.8170   -4.4850   -0.9730 hc        1 MOL      0.032863
    143 H62        -9.2210   -4.5840    0.2210 hc        1 MOL      0.032863
    144 H63        -9.5910   -3.3460   -2.1070 hc        1 MOL      0.044680
    145 H64       -10.0880   -2.4560   -0.5950 hc        1 MOL      0.044680
    146 H65        -7.5270   -2.0450   -2.1490 h1        1 MOL      0.022810
    147 H66        -8.6300   -0.8970   -1.3850 h1        1 MOL      0.022810
    148 N13        -5.5690   -3.8930    1.0220 n         1 MOL     -0.107312
    149 C50        -4.4330   -4.6450    1.5180 c3        1 MOL     -0.010620
    150 C51        -3.9330   -4.1790    2.8540 c         1 MOL      0.337678
    151 O21        -2.9670   -4.7640    3.3900 o         1 MOL     -0.507484
    152 C52        -3.3820   -4.5500    0.3960 c3        1 MOL     -0.007225
    153 C53        -2.6760   -5.8510    0.3530 c3        1 MOL     -0.131280
    154 C54        -1.3770   -5.8290   -0.5210 c         1 MOL      0.701260
    155 O22        -1.4080   -5.5490   -1.7740 o         1 MOL     -0.761492
    156 O23        -0.2660   -5.9340    0.0130 o         1 MOL     -0.761492
    157 H67        -5.3510   -3.3840    0.1770 hn        1 MOL      0.102595
    158 H68        -4.7420   -5.6640    1.7320 h1        1 MOL      0.106698
    159 H69        -2.6830   -3.7460    0.6070 hc        1 MOL      0.049464
    160 H70        -3.8630   -4.4460   -0.5720 hc        1 MOL      0.049464
    161 H71        -3.3510   -6.6840    0.1040 hc        1 MOL      0.012438
    162 H72        -2.3450   -6.0700    1.3690 hc        1 MOL      0.012438
    163 N14        -4.3530   -3.0460    3.4200 n         1 MOL     -0.067412
    164 C55        -3.9620   -2.5350    4.7050 c3        1 MOL     -0.198683
    165 H73        -3.7060   -3.3650    5.3630 h1        1 MOL      0.080082
    166 H74        -3.0960   -1.8830    4.5900 h1        1 MOL      0.080082
    167 H75        -4.7870   -1.9690    5.1380 h1        1 MOL      0.080082
    168 H76        -4.9240   -2.4400    2.8420 hn        1 MOL      0.151611
    169 Ca1         1.4780   -4.5890   -1.2520 Ca        1 MOL      1.716169
    170 O24         0.0810   -3.4550   -3.1660 oh        1 MOL     -0.770957
    171 H77        -0.5130   -3.7050   -3.8660 ho        1 MOL      0.382102
    172 H78        -0.2920   -2.6530   -2.8010 ho        1 MOL      0.382102
    173 O25         2.3840   -4.8930    1.2620 oh        1 MOL     -0.770957
    174 H79         1.5530   -4.7300    1.7190 ho        1 MOL      0.382102
    175 H80         3.0390   -4.9370    1.9650 ho        1 MOL      0.382102
    176 O26         2.5930   -7.0070   -0.7200 oh        1 MOL     -0.770957
    177 H81         3.5060   -7.0000   -0.9900 ho        1 MOL      0.382102
    178 H82         2.2750   -7.8810   -0.9410 ho        1 MOL      0.382102
    179 O27         1.7860   -5.8670   -3.5550 oh        1 MOL     -0.770957
    180 H83         1.9030   -5.3980   -4.3800 ho        1 MOL      0.382102
    181 H84         1.4090   -6.7130   -3.8190 ho        1 MOL      0.382102
@<TRIPOS>BOND
     1    1    2 1   
     2    1    4 1   
     3    1    5 1   
     4    1    6 1   
     5    2    3 2   
     6    2    7 1   
     7    7    8 1   
     8    7   15 1   
     9    8    9 1   
    10    8   11 1   
    11    8   16 1   
    12    9   10 2   
    13    9   19 1   
    14   11   12 1   
    15   11   17 1   
    16   11   18 1   
    17   12   13 1   
    18   12   14 1   
    19   19   20 1   
    20   19   24 1   
    21   20   21 1   
    22   20   23 1   
    23   20   25 1   
    24   21   22 2   
    25   21   29 1   
    26   23   26 1   
    27   23   27 1   
    28   23   28 1   
    29   29   30 1   
    30   29   37 1   
    31   30   31 1   
    32   30   33 1   
    33   30   38 1   
    34   31   32 2   
    35   31   41 1   
    36   33   34 1   
    37   33   39 1   
    38   33   40 1   
    39   34   35 1   
    40   34   36 1   
    41   41   42 1   
    42   41   45 1   
    43   42   43 1   
    44   42   46 1   
    45   42   47 1   
    46   43   44 2   
    47   43   48 1   
    48   48   49 1   
    49   48   56 1   
    50   49   50 1   
    51   49   52 1   
    52   49   57 1   
    53   50   51 2   
    54   50   62 1   
    55   52   53 1   
    56   52   58 1   
    57   52   59 1   
    58   53   54 1   
    59   53   55 2   
    60   54   60 1   
    61   54   61 1   
    62   62   63 1   
    63   62   66 1   
    64   63   64 1   
    65   63   67 1   
    66   63   68 1   
    67   64   65 2   
    68   64   69 1   
    69   69   70 1   
    70   69   76 1   
    71   70   71 1   
    72   70   73 1   
    73   70   77 1   
    74   71   72 2   
    75   71   83 1   
    76   73   74 1   
    77   73   75 1   
    78   73   78 1   
    79   74   80 1   
    80   74   81 1   
    81   74   82 1   
    82   75   79 1   
    83   83   84 1   
    84   83   91 1   
    85   84   85 1   
    86   84   87 1   
    87   84   92 1   
    88   85   86 2   
    89   85  102 1   
    90   87   88 1   
    91   87   89 1   
    92   87   93 1   
    93   88   90 1   
    94   88   94 1   
    95   88   95 1   
    96   89   96 1   
    97   89   97 1   
    98   89   98 1   
    99   90   99 1   
   100   90  100 1   
   101   90  101 1   
   102  102  103 1   
   103  102  110 1   
   104  103  104 1   
   105  103  106 1   
   106  103  111 1   
   107  104  105 2   
   108  104  114 1   
   109  106  107 1   
   110  106  112 1   
   111  106  113 1   
   112  107  108 1   
   113  107  109 1   
   114  114  115 1   
   115  114  125 1   
   116  115  116 1   
   117  115  118 1   
   118  115  126 1   
   119  116  117 2   
   120  116  134 1   
   121  118  119 1   
   122  118  127 1   
   123  118  128 1   
   124  119  120 ar  
   125  119  121 ar  
   126  120  122 ar  
   127  120  129 1   
   128  121  123 ar  
   129  121  130 1   
   130  122  124 ar  
   131  122  131 1   
   132  123  124 ar  
   133  123  132 1   
   134  124  133 1   
   135  134  135 1   
   136  134  140 1   
   137  135  136 1   
   138  135  138 1   
   139  135  141 1   
   140  136  137 2   
   141  136  148 1   
   142  138  139 1   
   143  138  142 1   
   144  138  143 1   
   145  139  140 1   
   146  139  144 1   
   147  139  145 1   
   148  140  146 1   
   149  140  147 1   
   150  148  149 1   
   151  148  157 1   
   152  149  150 1   
   153  149  152 1   
   154  149  158 1   
   155  150  151 2   
   156  150  163 1   
   157  152  153 1   
   158  152  159 1   
   159  152  160 1   
   160  153  154 1   
   161  153  161 1   
   162  153  162 1   
   163  154  155 1   
   164  154  156 1   
   165  163  164 1   
   166  163  168 1   
   167  164  165 1   
   168  164  166 1   
   169  164  167 1   
   170  170  171 1   
   171  170  172 1   
   172  173  174 1   
   173  173  175 1   
   174  176  177 1   
   175  176  178 1   
   176  179  180 1   
   177  179  181 1   
@<TRIPOS>SUBSTRUCTURE
     1 MOL         1 TEMP              0 ****  ****    0 ROOT
