@<TRIPOS>MOLECULE
MOL
  194   186     1     0     0
SMALL
resp


@<TRIPOS>ATOM
      1 C1          1.7120    0.6640    3.4810 c3        1 MOL     -0.413850
      2 C2          2.9750    0.7900    2.5800 c         1 MOL      0.609019
      3 O1          2.8880    1.0220    1.3640 o         1 MOL     -0.608489
      4 H1          1.9610    0.0940    4.3760 hc        1 MOL      0.113209
      5 H2          1.3690    1.6580    3.7680 hc        1 MOL      0.113209
      6 H3          0.9230    0.1510    2.9310 hc        1 MOL      0.113209
      7 N1          4.1510    0.6590    3.2410 n         1 MOL     -0.325977
      8 C3          5.5170    0.7010    2.6490 c3        1 MOL     -0.034970
      9 C4          6.0670   -0.6050    1.9840 c         1 MOL      0.444609
     10 O2          7.0390   -0.5810    1.2430 o         1 MOL     -0.489391
     11 C5          6.4580    1.3120    3.7340 c3        1 MOL     -0.203443
     12 C6          6.7810    0.3170    4.8880 c         1 MOL      0.763821
     13 O3          5.8420   -0.3150    5.4310 o         1 MOL     -0.716816
     14 O4          7.9720    0.2370    5.2130 o         1 MOL     -0.716816
     15 H4          4.1090    0.4660    4.2280 hn        1 MOL      0.220533
     16 H5          5.4810    1.3720    1.7920 h1        1 MOL      0.112828
     17 H6          6.0570    2.2360    4.1540 hc        1 MOL      0.055532
     18 H7          7.4250    1.4340    3.2270 hc        1 MOL      0.055532
     19 N2          5.4580   -1.7240    2.2970 n         1 MOL     -0.295180
     20 C7          5.6740   -3.1090    1.8820 c3        1 MOL     -0.060463
     21 C8          6.0120   -3.4120    0.4000 c         1 MOL      0.463525
     22 O5          6.7350   -4.3540    0.1550 o         1 MOL     -0.515443
     23 C9          6.5840   -3.7650    2.9150 c3        1 MOL     -0.061864
     24 C10         8.0070   -3.3080    2.8090 c3        1 MOL      0.067031
     25 C11         8.9640   -4.0170    3.7360 c3        1 MOL     -0.012561
     26 C12         9.0780   -5.5220    3.3840 c3        1 MOL      0.142829
     27 N3         10.1450   -6.2310    4.2060 n4        1 MOL     -0.409767
     28 H8          4.7330   -1.6170    3.0020 hn        1 MOL      0.211264
     29 H9          4.6920   -3.5730    1.9830 h1        1 MOL      0.128538
     30 H10         6.5290   -4.8460    2.7880 hc        1 MOL      0.021602
     31 H11         6.1570   -3.5690    3.8930 hc        1 MOL      0.021602
     32 H12         8.0660   -2.2200    2.9160 hc        1 MOL      0.032103
     33 H13         8.3540   -3.4620    1.7910 hc        1 MOL      0.032103
     34 H14         8.7250   -3.8750    4.7910 hc        1 MOL      0.028750
     35 H15         9.9800   -3.6450    3.6040 hc        1 MOL      0.028750
     36 H16         9.1770   -5.6540    2.3100 hx        1 MOL      0.032123
     37 H17         8.1240   -5.9960    3.6220 hx        1 MOL      0.032123
     38 H18         9.9830   -7.2200    4.1320 hn        1 MOL      0.299077
     39 H19        11.0240   -6.0160    3.7760 hn        1 MOL      0.299077
     40 H20        10.1120   -6.0130    5.1980 hn        1 MOL      0.299077
     41 N4          5.5190   -2.5950   -0.5170 n         1 MOL     -0.171054
     42 C13         6.0210   -2.5800   -1.8810 c3        1 MOL     -0.050457
     43 C14         5.9820   -1.1030   -2.3700 c         1 MOL      0.587767
     44 O6          5.2010   -0.2940   -1.8610 o         1 MOL     -0.473630
     45 C15         5.2320   -3.4700   -2.7850 c3        1 MOL     -0.157242
     46 C16         3.7400   -3.3120   -2.8240 c         1 MOL      0.721434
     47 O7          3.1620   -2.5090   -3.6000 o         1 MOL     -0.767552
     48 O8          3.0740   -3.9670   -2.0040 o         1 MOL     -0.767552
     49 H21         4.8690   -1.8740   -0.2510 hn        1 MOL      0.110197
     50 H22         7.0590   -2.9040   -1.8970 h1        1 MOL      0.091536
     51 H23         5.4660   -4.4830   -2.4500 hc        1 MOL      0.043851
     52 H24         5.7090   -3.2500   -3.7400 hc        1 MOL      0.043851
     53 N5          6.8530   -0.6910   -3.3510 n         1 MOL     -0.427472
     54 C17         7.1040    0.6820   -3.7720 c3        1 MOL     -0.103048
     55 C18         8.0130    1.3630   -2.7560 c         1 MOL      0.545564
     56 O9          9.0680    0.7760   -2.5240 o         1 MOL     -0.533491
     57 H25         7.6210   -1.2870   -3.5920 hn        1 MOL      0.296850
     58 H26         6.1410    1.1840   -3.8230 h1        1 MOL      0.099005
     59 H27         7.4380    0.6920   -4.8090 h1        1 MOL      0.099005
     60 N6          7.6530    2.4660   -2.0590 n         1 MOL     -0.575011
     61 C19         6.2500    3.0460   -1.9010 c3        1 MOL      0.330762
     62 C20         6.0010    3.4240   -0.4130 c         1 MOL      0.496512
     63 O10         6.9970    3.7090    0.3220 o         1 MOL     -0.532868
     64 C21         6.1570    4.2720   -2.8300 c3        1 MOL     -0.328611
     65 C22         6.1850    3.8300   -4.2900 c         1 MOL      0.663722
     66 N7          7.3150    3.8290   -4.8690 n         1 MOL     -0.747292
     67 O11         5.2020    3.3390   -4.8380 o         1 MOL     -0.579300
     68 H28         8.3000    2.6650   -1.3010 hn        1 MOL      0.333628
     69 H29         5.3970    2.4130   -2.1190 h1        1 MOL      0.021582
     70 H30         6.9530    4.9470   -2.5350 hc        1 MOL      0.088222
     71 H31         5.1970    4.7640   -2.6750 hc        1 MOL      0.088222
     72 H32         8.1710    4.0490   -4.3920 hn        1 MOL      0.360090
     73 H33         7.3360    3.6500   -5.8670 hn        1 MOL      0.360090
     74 N8          4.7250    3.4990    0.0010 n         1 MOL     -0.518308
     75 C23         3.4620    3.2340   -0.8130 c3        1 MOL     -0.046003
     76 C24         2.2880    3.8390   -0.0440 c         1 MOL      0.771696
     77 O12         2.4550    4.6480    0.8300 o         1 MOL     -0.561258
     78 H34         4.5650    3.8280    0.9530 hn        1 MOL      0.342616
     79 H35         3.3550    2.1550   -0.9230 h1        1 MOL      0.057126
     80 H36         3.3540    3.5710   -1.8390 h1        1 MOL      0.057126
     81 N9          1.0460    3.4900   -0.4060 n         1 MOL     -0.729616
     82 C25        -0.1510    4.1270    0.2060 c3        1 MOL      0.276569
     83 C26        -1.2710    3.0420    0.4560 c         1 MOL      0.650072
     84 O13        -1.0430    1.8740    0.1200 o         1 MOL     -0.593624
     85 C27        -0.5650    5.2420   -0.7350 c3        1 MOL     -0.128808
     86 C28        -1.5780    6.2510   -0.1060 ca        1 MOL      0.025902
     87 C29        -2.8290    6.3380   -0.7190 ca        1 MOL     -0.089460
     88 C30        -1.3700    6.8820    1.0740 ca        1 MOL     -0.089460
     89 C31        -3.7770    7.2160   -0.2630 ca        1 MOL     -0.341872
     90 C32        -2.3390    7.7920    1.6510 ca        1 MOL     -0.341872
     91 C33        -3.5370    7.9350    0.9030 ca        1 MOL      0.449854
     92 O14        -4.4250    8.8960    1.3620 oh        1 MOL     -0.536811
     93 H37         0.9330    2.8270   -1.1600 hn        1 MOL      0.331424
     94 H38         0.0750    4.5810    1.1770 h1        1 MOL      0.036687
     95 H39        -0.9850    4.7720   -1.6320 hc        1 MOL      0.055594
     96 H40         0.3040    5.8250   -1.0310 hc        1 MOL      0.055594
     97 H41        -3.0570    5.6520   -1.5200 ha        1 MOL      0.118723
     98 H42        -0.4430    6.5800    1.5400 ha        1 MOL      0.118723
     99 H43        -4.7580    7.3250   -0.7030 ha        1 MOL      0.171149
    100 H44        -2.0610    8.3210    2.5530 ha        1 MOL      0.171149
    101 H45        -4.1260    9.3480    2.1550 ho        1 MOL      0.382139
    102 N10        -2.4030    3.3740    1.0840 n         1 MOL     -0.535886
    103 C34        -3.6090    2.5600    1.3650 c3        1 MOL     -0.008746
    104 C35        -4.4800    2.4470    0.1250 c         1 MOL      0.458757
    105 O15        -4.4190    3.2720   -0.7440 o         1 MOL     -0.496652
    106 C36        -4.3620    3.1710    2.5680 c3        1 MOL      0.183010
    107 C37        -5.0590    4.4840    2.1760 c3        1 MOL      0.087831
    108 C38        -5.2390    2.0930    3.1670 c3        1 MOL     -0.136303
    109 C39        -5.3800    5.4900    3.1630 c3        1 MOL     -0.249280
    110 H46        -2.4710    4.3290    1.4000 hn        1 MOL      0.175411
    111 H47        -3.2610    1.5370    1.5100 h1        1 MOL      0.107251
    112 H48        -3.6760    3.3790    3.3790 hc        1 MOL      0.011885
    113 H49        -5.9560    4.2360    1.6080 hc        1 MOL      0.029535
    114 H50        -4.5220    4.9210    1.3320 hc        1 MOL      0.029535
    115 H51        -4.6270    1.2180    3.3930 hc        1 MOL      0.026321
    116 H52        -5.6700    2.4450    4.1040 hc        1 MOL      0.026321
    117 H53        -6.0900    1.8030    2.5500 hc        1 MOL      0.026321
    118 H54        -4.6180    5.4810    3.9530 hc        1 MOL      0.049243
    119 H55        -5.3960    6.4920    2.7470 hc        1 MOL      0.049243
    120 H56        -6.2830    5.1500    3.6770 hc        1 MOL      0.049243
    121 N11        -5.3260    1.4510   -0.0230 n         1 MOL     -0.308010
    122 C40        -6.2860    1.3580   -1.0850 c3        1 MOL      0.101716
    123 C41        -6.1400   -0.0500   -1.7480 c         1 MOL      0.509567
    124 O16        -5.8070   -0.9670   -1.0580 o         1 MOL     -0.425116
    125 C42        -7.7300    1.7410   -0.5300 c3        1 MOL     -0.024438
    126 O17        -8.2380    0.7400    0.3040 oh        1 MOL     -0.518632
    127 H57        -5.1310    0.5990    0.4960 hn        1 MOL      0.214242
    128 H58        -5.9420    2.0690   -1.8360 h1        1 MOL      0.022836
    129 H59        -8.3760    1.8840   -1.3940 h1        1 MOL      0.055053
    130 H60        -7.6120    2.7140   -0.0410 h1        1 MOL      0.055053
    131 H61        -9.1910    0.8720    0.4080 ho        1 MOL      0.436922
    132 N12        -6.5460   -0.1600   -3.0050 n         1 MOL     -0.498050
    133 C43        -6.8070   -1.4770   -3.7130 c3        1 MOL      0.312548
    134 C44        -7.6730   -2.4300   -2.8780 c         1 MOL      0.359435
    135 O18        -7.2700   -3.5020   -2.3550 o         1 MOL     -0.407620
    136 C45        -5.5040   -2.0710   -4.2420 c3        1 MOL     -0.448716
    137 H62        -6.8270    0.6860   -3.4830 hn        1 MOL      0.276145
    138 H63        -7.3740   -1.2250   -4.6130 h1        1 MOL      0.035239
    139 H64        -4.7280   -2.2740   -3.5130 hc        1 MOL      0.116722
    140 H65        -5.7430   -2.9940   -4.7600 hc        1 MOL      0.116722
    141 H66        -4.9300   -1.3970   -4.8700 hc        1 MOL      0.116722
    142 N13        -8.8980   -1.8670   -2.5290 n         1 MOL     -0.552112
    143 C46        -9.8390   -2.5900   -1.6580 c3        1 MOL      0.438027
    144 C47        -9.3890   -3.1000   -0.2070 c         1 MOL      0.206519
    145 O19        -9.8590   -4.1400    0.2720 o         1 MOL     -0.482562
    146 C48       -10.5170   -3.7300   -2.4540 c3        1 MOL     -0.430485
    147 H67        -9.0160   -0.9530   -2.9380 hn        1 MOL      0.268169
    148 H68       -10.6160   -1.8790   -1.3820 h1        1 MOL     -0.023045
    149 H69       -11.3530   -4.1250   -1.8880 hc        1 MOL      0.117925
    150 H70       -10.9280   -3.3920   -3.4070 hc        1 MOL      0.117925
    151 H71        -9.8080   -4.5550   -2.5720 hc        1 MOL      0.117925
    152 N14        -8.5120   -2.4260    0.5270 n         1 MOL      0.056062
    153 C49        -7.8630   -2.9020    1.7410 c3        1 MOL      0.013956
    154 C50        -8.4650   -2.2910    2.9930 c         1 MOL      0.253038
    155 O20        -8.4640   -2.8630    4.0740 o         1 MOL     -0.489171
    156 C51        -6.3350   -2.5460    1.7090 c3        1 MOL      0.473537
    157 C52        -5.6040   -3.5010    2.6080 c3        1 MOL     -0.228999
    158 C53        -5.2820   -4.7330    1.9060 c         1 MOL      0.716996
    159 O21        -5.9270   -5.7420    2.1950 o         1 MOL     -0.690500
    160 O22        -4.4440   -4.8070    1.0140 o         1 MOL     -0.690500
    161 H72        -8.2450   -1.5250    0.1500 hn        1 MOL     -0.006476
    162 H73        -7.9120   -3.9840    1.7990 h1        1 MOL      0.139654
    163 H74        -6.1700   -1.5180    2.0130 hc        1 MOL     -0.143411
    164 H75        -6.0290   -2.6160    0.6640 hc        1 MOL     -0.143411
    165 H76        -6.1310   -3.6730    3.5550 hc        1 MOL      0.001326
    166 H77        -4.6470   -3.0110    2.7910 hc        1 MOL      0.001326
    167 N15        -9.1780   -1.2480    2.8460 n         1 MOL     -0.089966
    168 C54       -10.0980   -0.7540    3.8780 c3        1 MOL     -0.043402
    169 H78       -10.0060   -1.3720    4.7710 h1        1 MOL      0.049143
    170 H79        -9.8500    0.2780    4.1230 h1        1 MOL      0.049143
    171 H80       -11.1220   -0.8040    3.5070 h1        1 MOL      0.049143
    172 H81        -9.2260   -0.8310    1.9290 hn        1 MOL      0.051937
    173 Ca1         0.7760   -2.7090   -2.0170 Ca        1 MOL      1.781480
    174 O23         0.6410   -3.6040    0.3980 oh        1 MOL     -0.812999
    175 H82         1.0650   -3.9890    1.1650 ho        1 MOL      0.405858
    176 H83        -0.2950   -3.7420    0.5590 ho        1 MOL      0.405858
    177 O24        -0.9620   -1.1890   -0.7220 oh        1 MOL     -0.812999
    178 H84        -0.8210   -0.2430   -0.7800 ho        1 MOL      0.405858
    179 H85        -1.9140   -1.2880   -0.6450 ho        1 MOL      0.405858
    180 O25         0.1810   -3.4320   -4.5360 oh        1 MOL     -0.812999
    181 H86         0.8980   -3.8690   -4.9990 ho        1 MOL      0.405858
    182 H87        -0.5540   -3.4720   -5.1420 ho        1 MOL      0.405858
    183 O26        -1.9650   -3.3590   -2.7390 oh        1 MOL     -0.812999
    184 H88        -2.6930   -3.7560   -2.2490 ho        1 MOL      0.405858
    185 H89        -2.0530   -3.7200   -3.6210 ho        1 MOL      0.405858
    186 O27        -0.1670   -0.5150   -3.4210 oh        1 MOL     -0.812999
    187 H90        -0.9570   -0.5040   -3.9710 ho        1 MOL      0.405858
    188 H91         0.3740    0.1950   -3.7720 ho        1 MOL      0.405858
    189 O28         2.4280   -0.9200   -1.0700 oh        1 MOL     -0.812999
    190 H92         2.3540   -0.4320   -0.2500 ho        1 MOL      0.405858
    191 H93         3.1900   -0.5410   -1.5070 ho        1 MOL      0.405858
    192 O29         0.1430   -5.2340   -2.1260 oh        1 MOL     -0.812999
    193 H94         0.2490   -5.9390   -1.4840 ho        1 MOL      0.405858
    194 H95        -0.1330   -5.6760   -2.9300 ho        1 MOL      0.405858
@<TRIPOS>BOND
     1    1    2 1   
     2    1    4 1   
     3    1    5 1   
     4    1    6 1   
     5    2    3 2   
     6    2    7 1   
     7    7    8 1   
     8    7   15 1   
     9    8    9 1   
    10    8   11 1   
    11    8   16 1   
    12    9   10 2   
    13    9   19 1   
    14   11   12 1   
    15   11   17 1   
    16   11   18 1   
    17   12   13 1   
    18   12   14 1   
    19   19   20 1   
    20   19   28 1   
    21   20   21 1   
    22   20   23 1   
    23   20   29 1   
    24   21   22 2   
    25   21   41 1   
    26   23   24 1   
    27   23   30 1   
    28   23   31 1   
    29   24   25 1   
    30   24   32 1   
    31   24   33 1   
    32   25   26 1   
    33   25   34 1   
    34   25   35 1   
    35   26   27 1   
    36   26   36 1   
    37   26   37 1   
    38   27   38 1   
    39   27   39 1   
    40   27   40 1   
    41   41   42 1   
    42   41   49 1   
    43   42   43 1   
    44   42   45 1   
    45   42   50 1   
    46   43   44 2   
    47   43   53 1   
    48   45   46 1   
    49   45   51 1   
    50   45   52 1   
    51   46   47 1   
    52   46   48 1   
    53   53   54 1   
    54   53   57 1   
    55   54   55 1   
    56   54   58 1   
    57   54   59 1   
    58   55   56 2   
    59   55   60 1   
    60   60   61 1   
    61   60   68 1   
    62   61   62 1   
    63   61   64 1   
    64   61   69 1   
    65   62   63 2   
    66   62   74 1   
    67   64   65 1   
    68   64   70 1   
    69   64   71 1   
    70   65   66 1   
    71   65   67 2   
    72   66   72 1   
    73   66   73 1   
    74   74   75 1   
    75   74   78 1   
    76   75   76 1   
    77   75   79 1   
    78   75   80 1   
    79   76   77 2   
    80   76   81 1   
    81   81   82 1   
    82   81   93 1   
    83   82   83 1   
    84   82   85 1   
    85   82   94 1   
    86   83   84 2   
    87   83  102 1   
    88   85   86 1   
    89   85   95 1   
    90   85   96 1   
    91   86   87 ar  
    92   86   88 ar  
    93   87   89 ar  
    94   87   97 1   
    95   88   90 ar  
    96   88   98 1   
    97   89   91 ar  
    98   89   99 1   
    99   90   91 ar  
   100   90  100 1   
   101   91   92 1   
   102   92  101 1   
   103  102  103 1   
   104  102  110 1   
   105  103  104 1   
   106  103  106 1   
   107  103  111 1   
   108  104  105 2   
   109  104  121 1   
   110  106  107 1   
   111  106  108 1   
   112  106  112 1   
   113  107  109 1   
   114  107  113 1   
   115  107  114 1   
   116  108  115 1   
   117  108  116 1   
   118  108  117 1   
   119  109  118 1   
   120  109  119 1   
   121  109  120 1   
   122  121  122 1   
   123  121  127 1   
   124  122  123 1   
   125  122  125 1   
   126  122  128 1   
   127  123  124 2   
   128  123  132 1   
   129  125  126 1   
   130  125  129 1   
   131  125  130 1   
   132  126  131 1   
   133  132  133 1   
   134  132  137 1   
   135  133  134 1   
   136  133  136 1   
   137  133  138 1   
   138  134  135 2   
   139  134  142 1   
   140  136  139 1   
   141  136  140 1   
   142  136  141 1   
   143  142  143 1   
   144  142  147 1   
   145  143  144 1   
   146  143  146 1   
   147  143  148 1   
   148  144  145 2   
   149  144  152 1   
   150  146  149 1   
   151  146  150 1   
   152  146  151 1   
   153  152  153 1   
   154  152  161 1   
   155  153  154 1   
   156  153  156 1   
   157  153  162 1   
   158  154  155 2   
   159  154  167 1   
   160  156  157 1   
   161  156  163 1   
   162  156  164 1   
   163  157  158 1   
   164  157  165 1   
   165  157  166 1   
   166  158  159 1   
   167  158  160 1   
   168  167  168 1   
   169  167  172 1   
   170  168  169 1   
   171  168  170 1   
   172  168  171 1   
   173  174  175 1   
   174  174  176 1   
   175  177  178 1   
   176  177  179 1   
   177  180  181 1   
   178  180  182 1   
   179  183  184 1   
   180  183  185 1   
   181  186  187 1   
   182  186  188 1   
   183  189  190 1   
   184  189  191 1   
   185  192  193 1   
   186  192  194 1   
@<TRIPOS>SUBSTRUCTURE
     1 MOL         1 TEMP              0 ****  ****    0 ROOT
