@<TRIPOS>MOLECULE
MOL
  188   182     1     0     0
SMALL
resp


@<TRIPOS>ATOM
      1 C1          4.0330    1.1650    4.5420 c3        1 MOL     -0.463952
      2 C2          4.4040    1.1120    3.0860 c         1 MOL      0.686065
      3 O1          3.7560    0.5110    2.2350 o         1 MOL     -0.584556
      4 H1          3.2270    0.4580    4.7360 hc        1 MOL      0.116506
      5 H2          4.9000    0.9040    5.1480 hc        1 MOL      0.116506
      6 H3          3.7010    2.1720    4.7960 hc        1 MOL      0.116506
      7 N1          5.4640    1.8030    2.7250 n         1 MOL     -0.516449
      8 C3          6.2090    1.6350    1.4420 c3        1 MOL     -0.113599
      9 C4          6.2150    0.1540    0.8970 c         1 MOL      0.582371
     10 O2          6.1430    0.0510   -0.3140 o         1 MOL     -0.472747
     11 C5          5.8000    2.6670    0.3550 c3        1 MOL     -0.078033
     12 C6          6.8250    2.7210   -0.7490 c         1 MOL      0.648621
     13 O3          6.5060    3.1200   -1.8850 o         1 MOL     -0.617560
     14 O4          8.0790    2.6580   -0.5070 o         1 MOL     -0.617560
     15 H4          5.9390    2.3540    3.4290 hn        1 MOL      0.309191
     16 H5          7.2330    1.9420    1.6600 h1        1 MOL      0.032820
     17 H6          5.7260    3.6120    0.8820 hc        1 MOL      0.096323
     18 H7          4.8280    2.4660   -0.0860 hc        1 MOL      0.096323
     19 N2          6.4810   -0.8300    1.7660 n         1 MOL     -0.524747
     20 C7          6.7940   -2.2180    1.4410 c3        1 MOL      0.071465
     21 C8          5.6760   -3.1420    0.8780 c         1 MOL      0.463858
     22 O5          5.9050   -4.3500    0.5900 o         1 MOL     -0.538674
     23 C9          7.4840   -3.0040    2.5920 c3        1 MOL     -0.047240
     24 C10         8.5080   -2.2150    3.4310 c3        1 MOL      0.096008
     25 C11         8.9580   -3.0350    4.6570 c3        1 MOL     -0.052338
     26 C12         9.7850   -2.1580    5.5900 c3        1 MOL      0.068891
     27 N3         10.4450   -3.0650    6.5320 n4        1 MOL     -0.147823
     28 H8          6.4620   -0.4810    2.7140 hn        1 MOL      0.319127
     29 H9          7.4730   -2.2080    0.5840 h1        1 MOL      0.116622
     30 H10         7.9500   -3.8900    2.1630 hc        1 MOL      0.031603
     31 H11         6.6690   -3.3520    3.2190 hc        1 MOL      0.031603
     32 H12         8.0000   -1.3070    3.7770 hc        1 MOL     -0.011993
     33 H13         9.3450   -1.9830    2.7830 hc        1 MOL     -0.011993
     34 H14         9.5560   -3.8760    4.3130 hc        1 MOL      0.032771
     35 H15         8.0910   -3.5040    5.1140 hc        1 MOL      0.032771
     36 H16         9.1490   -1.4750    6.1480 hx        1 MOL      0.049603
     37 H17        10.4790   -1.6450    4.9200 hx        1 MOL      0.049603
     38 H18        11.0070   -3.8290    6.1810 hn        1 MOL      0.220588
     39 H19        11.0130   -2.4510    7.1090 hn        1 MOL      0.220588
     40 H20         9.7310   -3.4860    7.1060 hn        1 MOL      0.220588
     41 N4          4.4640   -2.5600    0.7780 n         1 MOL     -0.416983
     42 C13         3.2920   -3.1530    0.0240 c3        1 MOL      0.188548
     43 C14         3.6220   -3.3510   -1.4770 c         1 MOL      0.532776
     44 O6          4.4480   -2.6750   -2.1030 o         1 MOL     -0.470265
     45 C15         2.0770   -2.2430    0.2060 c3        1 MOL     -0.282401
     46 C16         0.8750   -2.5830   -0.6030 c         1 MOL      0.780981
     47 O7          0.7670   -2.2340   -1.7830 o         1 MOL     -0.736360
     48 O8         -0.1170   -3.1160   -0.0790 o         1 MOL     -0.736360
     49 H21         4.4070   -1.5730    0.9990 hn        1 MOL      0.234410
     50 H22         3.0350   -4.1200    0.4480 h1        1 MOL      0.016247
     51 H23         2.4740   -1.2700   -0.0870 hc        1 MOL      0.114198
     52 H24         1.8170   -2.2990    1.2610 hc        1 MOL      0.114198
     53 N5          3.0180   -4.3800   -2.0940 n         1 MOL     -0.431951
     54 C17         3.3470   -4.7200   -3.4380 c3        1 MOL     -0.216843
     55 C18         2.7650   -3.7670   -4.4900 c         1 MOL      0.586829
     56 O9          2.9610   -4.0400   -5.6610 o         1 MOL     -0.601066
     57 H25         2.2660   -4.9280   -1.7070 hn        1 MOL      0.311413
     58 H26         2.9560   -5.7190   -3.6130 h1        1 MOL      0.134187
     59 H27         4.4350   -4.7060   -3.5320 h1        1 MOL      0.134187
     60 N6          2.1460   -2.6460   -4.1770 n         1 MOL     -0.052156
     61 C19         1.8820   -1.5950   -5.1490 c3        1 MOL     -0.228306
     62 C20         2.1360   -0.1740   -4.4790 c         1 MOL      0.458739
     63 O10         2.3870    0.8790   -5.0990 o         1 MOL     -0.531035
     64 C21         0.4530   -1.7380   -5.7730 c3        1 MOL     -0.031728
     65 C22        -0.6300   -1.2170   -4.9030 c         1 MOL      0.556641
     66 N7         -1.0970   -0.0060   -5.2050 n         1 MOL     -0.893373
     67 O11        -1.1140   -1.8730   -4.0580 o         1 MOL     -0.566818
     68 H28         1.9630   -2.5120   -3.2000 hn        1 MOL     -0.076103
     69 H29         2.5540   -1.6870   -6.0120 h1        1 MOL      0.151545
     70 H30         0.3270   -2.8040   -5.9680 hc        1 MOL      0.063627
     71 H31         0.3890   -1.2750   -6.7620 hc        1 MOL      0.063627
     72 H32        -0.7990    0.5760   -5.9740 hn        1 MOL      0.406307
     73 H33        -1.9180    0.2710   -4.6930 hn        1 MOL      0.406307
     74 N8          1.9220   -0.0990   -3.1790 n         1 MOL     -0.021733
     75 C23         2.4830    0.9670   -2.3340 c3        1 MOL     -0.392926
     76 C24         1.5190    1.9220   -1.6650 c         1 MOL      0.615605
     77 O12         0.3000    1.9100   -1.9440 o         1 MOL     -0.570629
     78 H34         1.5790   -0.8860   -2.6600 hn        1 MOL      0.275131
     79 H35         3.2140    1.5630   -2.8880 h1        1 MOL      0.154687
     80 H36         2.9330    0.4620   -1.4720 h1        1 MOL      0.154687
     81 N9          2.1230    2.7790   -0.8040 n         1 MOL     -0.357469
     82 C25         1.2800    3.6130    0.1180 c3        1 MOL      0.214335
     83 C26         0.2680    2.7620    0.9740 c         1 MOL      0.545285
     84 O13         0.5960    1.6560    1.4480 o         1 MOL     -0.506625
     85 C27         2.0780    4.6950    0.9140 c3        1 MOL     -0.022595
     86 C28         2.5380    5.8500    0.0760 ca        1 MOL      0.055889
     87 C29         3.8440    5.7170   -0.4990 ca        1 MOL     -0.208000
     88 C30         1.6700    6.9250   -0.2130 ca        1 MOL     -0.208000
     89 C31         4.2730    6.6820   -1.4430 ca        1 MOL     -0.188064
     90 C32         2.1260    7.8550   -1.1820 ca        1 MOL     -0.188064
     91 C33         3.4350    7.7640   -1.7590 ca        1 MOL      0.257646
     92 O14         3.8830    8.7330   -2.5770 oh        1 MOL     -0.403551
     93 H37         3.1210    2.7460   -0.6350 hn        1 MOL      0.222901
     94 H38         0.6280    4.1430   -0.5760 h1        1 MOL     -0.023526
     95 H39         2.9050    4.1480    1.3700 hc        1 MOL      0.016007
     96 H40         1.5500    5.1650    1.7370 hc        1 MOL      0.016007
     97 H41         4.4180    4.8430   -0.2390 ha        1 MOL      0.105069
     98 H42         0.7450    7.0000    0.3550 ha        1 MOL      0.105069
     99 H43         5.2460    6.6660   -1.9090 ha        1 MOL      0.146361
    100 H44         1.5690    8.7620   -1.3590 ha        1 MOL      0.146361
    101 H45         3.2650    9.4400   -2.7310 ho        1 MOL      0.311728
    102 N10        -0.9530    3.3090    1.1370 n         1 MOL     -0.761070
    103 C34        -2.1050    2.4830    1.6570 c3        1 MOL      0.252850
    104 C35        -3.1870    2.2690    0.5270 c         1 MOL      0.400430
    105 O15        -3.5240    1.2090    0.1310 o         1 MOL     -0.435046
    106 C36        -2.6090    3.0780    2.9950 c3        1 MOL      0.068127
    107 C37        -1.5280    3.1980    4.1100 c3        1 MOL      0.118360
    108 C38        -3.8740    2.3510    3.4570 c3        1 MOL     -0.384992
    109 C39        -2.0960    3.6000    5.5570 c3        1 MOL     -0.361410
    110 H46        -1.1470    4.2450    0.8050 hn        1 MOL      0.326415
    111 H47        -1.8170    1.4640    1.9090 h1        1 MOL      0.044503
    112 H48        -2.9630    4.0930    2.8380 hc        1 MOL     -0.040911
    113 H49        -0.6990    3.8610    3.8590 hc        1 MOL      0.028213
    114 H50        -1.1050    2.2030    4.1680 hc        1 MOL      0.028213
    115 H51        -4.4790    2.9880    4.0880 hc        1 MOL      0.098351
    116 H52        -4.4480    1.8490    2.6870 hc        1 MOL      0.098351
    117 H53        -3.4600    1.5280    4.0520 hc        1 MOL      0.098351
    118 H54        -2.6990    4.5060    5.4840 hc        1 MOL      0.096936
    119 H55        -2.5590    2.7180    5.9960 hc        1 MOL      0.096936
    120 H56        -1.2190    3.8120    6.1670 hc        1 MOL      0.096936
    121 N11        -3.6670    3.4190   -0.0250 n         1 MOL     -0.136487
    122 C40        -4.5550    3.3590   -1.1890 c3        1 MOL     -0.413319
    123 C41        -6.0630    3.2440   -0.8150 c         1 MOL      0.764546
    124 O16        -6.8110    2.6910   -1.6740 o         1 MOL     -0.518023
    125 C42        -4.3510    4.5420   -2.1580 c3        1 MOL      0.231649
    126 O17        -4.7430    5.6930   -1.5470 oh        1 MOL     -0.585794
    127 H57        -3.4590    4.3070    0.4020 hn        1 MOL      0.211270
    128 H58        -4.3430    2.4750   -1.7880 h1        1 MOL      0.160474
    129 H59        -4.9600    4.4000   -3.0510 h1        1 MOL      0.030632
    130 H60        -3.2920    4.5990   -2.3970 h1        1 MOL      0.030632
    131 H61        -4.0520    6.3390   -1.6570 ho        1 MOL      0.397145
    132 N12        -6.4140    3.4900    0.5190 n         1 MOL     -0.621634
    133 C43        -7.6860    3.1040    1.1430 c3        1 MOL      0.393770
    134 C44        -7.9980    1.5860    0.9350 c         1 MOL      0.346480
    135 O18        -9.1430    1.2770    0.7100 o         1 MOL     -0.483601
    136 C45        -8.8110    4.0210    0.8310 c3        1 MOL     -0.287803
    137 H62        -5.7660    4.0520    1.0360 hn        1 MOL      0.280090
    138 H63        -7.5890    3.3210    2.2010 h1        1 MOL      0.017864
    139 H64        -8.6080    4.9900    1.2690 hc        1 MOL      0.076042
    140 H65        -8.9500    4.1530   -0.2380 hc        1 MOL      0.076042
    141 H66        -9.7030    3.6740    1.3600 hc        1 MOL      0.076042
    142 N13        -7.0140    0.6910    1.0140 n         1 MOL     -0.490429
    143 C46        -7.0950   -0.7020    0.5850 c3        1 MOL      0.586860
    144 C47        -6.3730   -1.6460    1.5500 c         1 MOL      0.440302
    145 O19        -5.4490   -1.2520    2.2120 o         1 MOL     -0.504058
    146 C48        -6.5010   -0.9460   -0.8290 c3        1 MOL     -0.311773
    147 H67        -6.1700    1.0240    1.4540 hn        1 MOL      0.219355
    148 H68        -8.1330   -1.0540    0.5440 h1        1 MOL     -0.084494
    149 H69        -6.7170   -1.9350   -1.2060 hc        1 MOL      0.053738
    150 H70        -6.8740   -0.1170   -1.4420 hc        1 MOL      0.053738
    151 H71        -5.4240   -0.7950   -0.7660 hc        1 MOL      0.053738
    152 N14        -6.8590   -2.8950    1.6690 n         1 MOL     -0.657691
    153 C49        -6.2620   -3.9030    2.6190 c3        1 MOL     -0.082944
    154 C50        -6.2910   -3.4740    4.1240 c         1 MOL      0.449281
    155 O20        -5.9090   -4.2340    4.9340 o         1 MOL     -0.482028
    156 C51        -4.9100   -4.5110    2.1940 c3        1 MOL      0.243321
    157 C52        -5.1260   -5.1260    0.7760 c3        1 MOL     -0.128383
    158 C53        -3.7550   -5.3970    0.2040 c         1 MOL      0.539217
    159 O21        -3.3400   -4.7770   -0.7950 o         1 MOL     -0.654925
    160 O22        -3.1370   -6.3920    0.6790 o         1 MOL     -0.654925
    161 H72        -7.7340   -3.0680    1.1970 hn        1 MOL      0.366506
    162 H73        -6.9660   -4.7340    2.6680 h1        1 MOL      0.118914
    163 H74        -4.6640   -5.2390    2.9730 hc        1 MOL     -0.009334
    164 H75        -4.1780   -3.7150    2.0620 hc        1 MOL     -0.009334
    165 H76        -5.7720   -4.5610    0.1110 hc        1 MOL      0.014401
    166 H77        -5.6250   -6.0450    1.0880 hc        1 MOL      0.014401
    167 N15        -6.9050   -2.3160    4.4440 n         1 MOL     -0.219440
    168 C54        -7.2470   -1.8540    5.7880 c3        1 MOL     -0.183711
    169 H78        -8.2060   -2.2790    6.0850 h1        1 MOL      0.089467
    170 H79        -6.4760   -2.1710    6.4900 h1        1 MOL      0.089467
    171 H80        -7.3170   -0.7660    5.7920 h1        1 MOL      0.089467
    172 H81        -7.0600   -1.6430    3.7180 hn        1 MOL      0.191317
    173 Ca1        -2.0290   -2.7940   -1.9040 Ca        1 MOL      1.643368
    174 O23        -3.1030   -1.5670    0.2160 oh        1 MOL     -0.772322
    175 H82        -3.6980   -1.6830    0.9610 ho        1 MOL      0.390040
    176 H83        -2.8680   -0.6360    0.2430 ho        1 MOL      0.390040
    177 O24        -3.3550   -4.2990   -4.0890 oh        1 MOL     -0.772322
    178 H84        -3.2630   -4.4500   -5.0290 ho        1 MOL      0.390040
    179 H85        -4.2770   -4.0780   -3.9770 ho        1 MOL      0.390040
    180 O25        -4.1790   -1.6110   -2.7990 oh        1 MOL     -0.772322
    181 H86        -4.4440   -0.8040   -3.2410 ho        1 MOL      0.390040
    182 H87        -4.7660   -2.2820   -3.1460 ho        1 MOL      0.390040
    183 O26        -0.5170   -4.9160   -2.4750 oh        1 MOL     -0.772322
    184 H88         0.2300   -5.3370   -2.0350 ho        1 MOL      0.390040
    185 H89        -0.9170   -5.6050   -2.9930 ho        1 MOL      0.390040
    186 O27        -1.4600   -0.1570   -1.5850 oh        1 MOL     -0.772322
    187 H90        -0.6000    0.2030   -1.7630 ho        1 MOL      0.390040
    188 H91        -2.0630    0.5860   -1.6650 ho        1 MOL      0.390040
@<TRIPOS>BOND
     1    1    2 1   
     2    1    4 1   
     3    1    5 1   
     4    1    6 1   
     5    2    3 2   
     6    2    7 1   
     7    7    8 1   
     8    7   15 1   
     9    8    9 1   
    10    8   11 1   
    11    8   16 1   
    12    9   10 2   
    13    9   19 1   
    14   11   12 1   
    15   11   17 1   
    16   11   18 1   
    17   12   13 1   
    18   12   14 1   
    19   19   20 1   
    20   19   28 1   
    21   20   21 1   
    22   20   23 1   
    23   20   29 1   
    24   21   22 2   
    25   21   41 1   
    26   23   24 1   
    27   23   30 1   
    28   23   31 1   
    29   24   25 1   
    30   24   32 1   
    31   24   33 1   
    32   25   26 1   
    33   25   34 1   
    34   25   35 1   
    35   26   27 1   
    36   26   36 1   
    37   26   37 1   
    38   27   38 1   
    39   27   39 1   
    40   27   40 1   
    41   41   42 1   
    42   41   49 1   
    43   42   43 1   
    44   42   45 1   
    45   42   50 1   
    46   43   44 2   
    47   43   53 1   
    48   45   46 1   
    49   45   51 1   
    50   45   52 1   
    51   46   47 1   
    52   46   48 1   
    53   53   54 1   
    54   53   57 1   
    55   54   55 1   
    56   54   58 1   
    57   54   59 1   
    58   55   56 2   
    59   55   60 1   
    60   60   61 1   
    61   60   68 1   
    62   61   62 1   
    63   61   64 1   
    64   61   69 1   
    65   62   63 2   
    66   62   74 1   
    67   64   65 1   
    68   64   70 1   
    69   64   71 1   
    70   65   66 1   
    71   65   67 2   
    72   66   72 1   
    73   66   73 1   
    74   74   75 1   
    75   74   78 1   
    76   75   76 1   
    77   75   79 1   
    78   75   80 1   
    79   76   77 2   
    80   76   81 1   
    81   81   82 1   
    82   81   93 1   
    83   82   83 1   
    84   82   85 1   
    85   82   94 1   
    86   83   84 2   
    87   83  102 1   
    88   85   86 1   
    89   85   95 1   
    90   85   96 1   
    91   86   87 ar  
    92   86   88 ar  
    93   87   89 ar  
    94   87   97 1   
    95   88   90 ar  
    96   88   98 1   
    97   89   91 ar  
    98   89   99 1   
    99   90   91 ar  
   100   90  100 1   
   101   91   92 1   
   102   92  101 1   
   103  102  103 1   
   104  102  110 1   
   105  103  104 1   
   106  103  106 1   
   107  103  111 1   
   108  104  105 2   
   109  104  121 1   
   110  106  107 1   
   111  106  108 1   
   112  106  112 1   
   113  107  109 1   
   114  107  113 1   
   115  107  114 1   
   116  108  115 1   
   117  108  116 1   
   118  108  117 1   
   119  109  118 1   
   120  109  119 1   
   121  109  120 1   
   122  121  122 1   
   123  121  127 1   
   124  122  123 1   
   125  122  125 1   
   126  122  128 1   
   127  123  124 2   
   128  123  132 1   
   129  125  126 1   
   130  125  129 1   
   131  125  130 1   
   132  126  131 1   
   133  132  133 1   
   134  132  137 1   
   135  133  134 1   
   136  133  136 1   
   137  133  138 1   
   138  134  135 2   
   139  134  142 1   
   140  136  139 1   
   141  136  140 1   
   142  136  141 1   
   143  142  143 1   
   144  142  147 1   
   145  143  144 1   
   146  143  146 1   
   147  143  148 1   
   148  144  145 2   
   149  144  152 1   
   150  146  149 1   
   151  146  150 1   
   152  146  151 1   
   153  152  153 1   
   154  152  161 1   
   155  153  154 1   
   156  153  156 1   
   157  153  162 1   
   158  154  155 2   
   159  154  167 1   
   160  156  157 1   
   161  156  163 1   
   162  156  164 1   
   163  157  158 1   
   164  157  165 1   
   165  157  166 1   
   166  158  159 1   
   167  158  160 1   
   168  167  168 1   
   169  167  172 1   
   170  168  169 1   
   171  168  170 1   
   172  168  171 1   
   173  174  175 1   
   174  174  176 1   
   175  177  178 1   
   176  177  179 1   
   177  180  181 1   
   178  180  182 1   
   179  183  184 1   
   180  183  185 1   
   181  186  187 1   
   182  186  188 1   
@<TRIPOS>SUBSTRUCTURE
     1 MOL         1 TEMP              0 ****  ****    0 ROOT
