@<TRIPOS>MOLECULE
MOL
  191   184     1     0     0
SMALL
resp


@<TRIPOS>ATOM
      1 C1          4.6050    2.1310    5.6560 c3        1 MOL     -0.399426
      2 C2          3.8830    1.9940    4.2820 c         1 MOL      0.700686
      3 O1          2.7080    1.6180    4.2820 o         1 MOL     -0.572512
      4 H1          4.5430    1.1850    6.1950 hc        1 MOL      0.101035
      5 H2          5.6520    2.3870    5.4930 hc        1 MOL      0.101035
      6 H3          4.1250    2.9150    6.2430 hc        1 MOL      0.101035
      7 N1          4.6440    2.0850    3.1460 n         1 MOL     -0.633529
      8 C3          4.2420    1.7770    1.7690 c3        1 MOL      0.456816
      9 C4          4.6370    0.3490    1.3060 c         1 MOL      0.470057
     10 O2          4.0330   -0.1700    0.4310 o         1 MOL     -0.711572
     11 C5          4.4690    2.8830    0.8340 c3        1 MOL     -0.371299
     12 C6          5.8180    3.4770    0.5850 c         1 MOL      0.709930
     13 O3          6.7970    2.8440    0.5070 o         1 MOL     -0.631887
     14 O4          5.9110    4.7040    0.3790 o         1 MOL     -0.631887
     15 H4          5.5210    2.5610    3.3020 hn        1 MOL      0.318151
     16 H5          3.1510    1.7410    1.7470 h1        1 MOL      0.014427
     17 H6          3.8210    3.7370    1.0620 hc        1 MOL      0.061144
     18 H7          4.1260    2.6240   -0.1700 hc        1 MOL      0.061144
     19 N2          5.6020   -0.3160    1.9670 n         1 MOL     -0.459414
     20 C7          5.9390   -1.7490    1.8650 c3        1 MOL      0.090315
     21 C8          6.7880   -2.1180    0.6820 c         1 MOL      0.302307
     22 O5          7.7680   -1.4930    0.3380 o         1 MOL     -0.474058
     23 C9          6.5970   -2.3100    3.1970 c3        1 MOL     -0.111758
     24 C10         5.5910   -2.5130    4.3310 c3        1 MOL     -0.064022
     25 C11         6.2800   -2.8680    5.6380 c3        1 MOL      0.030803
     26 C12         7.3830   -3.8860    5.7490 c3        1 MOL      0.079899
     27 N3          8.3730   -3.7090    6.8150 n4        1 MOL     -0.253615
     28 H8          6.0560    0.2020    2.7090 hn        1 MOL      0.268858
     29 H9          5.0110   -2.3180    1.7720 h1        1 MOL      0.133264
     30 H10         7.4460   -1.6940    3.4870 hc        1 MOL      0.065359
     31 H11         6.9190   -3.3340    2.9680 hc        1 MOL      0.065359
     32 H12         4.9360   -3.3040    3.9620 hc        1 MOL      0.050284
     33 H13         4.9450   -1.6470    4.4160 hc        1 MOL      0.050284
     34 H14         5.5190   -2.9850    6.4010 hc        1 MOL      0.008658
     35 H15         6.8140   -1.9520    5.9030 hc        1 MOL      0.008658
     36 H16         7.8810   -3.9260    4.7780 hx        1 MOL      0.048416
     37 H17         6.8930   -4.8430    5.9540 hx        1 MOL      0.048416
     38 H18         8.5860   -2.7280    6.8960 hn        1 MOL      0.246980
     39 H19         8.0540   -3.9270    7.7520 hn        1 MOL      0.246980
     40 H20         9.1420   -4.3470    6.6150 hn        1 MOL      0.246980
     41 N4          6.3360   -3.0090   -0.1830 n         1 MOL     -0.208237
     42 C13         6.7900   -3.1990   -1.5830 c3        1 MOL     -0.151842
     43 C14         6.5790   -1.9380   -2.4300 c         1 MOL      0.594351
     44 O6          7.1630   -1.7240   -3.4640 o         1 MOL     -0.529247
     45 C15         6.0440   -4.4320   -2.1560 c3        1 MOL     -0.164109
     46 C16         4.5260   -4.4670   -1.9440 c         1 MOL      0.627282
     47 O7          3.7220   -4.0780   -2.8130 o         1 MOL     -0.690015
     48 O8          4.0080   -4.6200   -0.8150 o         1 MOL     -0.690015
     49 H21         5.4650   -3.4450    0.0860 hn        1 MOL      0.119411
     50 H22         7.8650   -3.3980   -1.6040 h1        1 MOL      0.135216
     51 H23         6.4050   -5.3470   -1.6930 hc        1 MOL      0.062679
     52 H24         6.2940   -4.4680   -3.2190 hc        1 MOL      0.062679
     53 N5          5.7490   -1.0030   -1.9600 n         1 MOL     -0.435152
     54 C17         5.3540    0.2030   -2.6300 c3        1 MOL     -0.052033
     55 C18         6.3790    1.3620   -2.6170 c         1 MOL      0.638348
     56 O9          7.5470    1.1210   -2.3020 o         1 MOL     -0.493155
     57 H25         5.4420   -1.1280   -1.0050 hn        1 MOL      0.531781
     58 H26         4.4600    0.5260   -2.0900 h1        1 MOL      0.034549
     59 H27         5.1450   -0.0750   -3.6650 h1        1 MOL      0.034549
     60 N6          5.9970    2.6710   -2.9200 n         1 MOL     -0.545582
     61 C19         4.6700    3.1020   -3.3450 c3        1 MOL      0.258107
     62 C20         4.5170    4.5800   -2.8150 c         1 MOL      0.482657
     63 O10         5.4210    5.3500   -2.9930 o         1 MOL     -0.478757
     64 C21         4.6010    3.0250   -4.8390 c3        1 MOL     -0.658473
     65 C22         3.2680    3.4460   -5.4800 c         1 MOL      0.804276
     66 N7          2.2450    2.6670   -5.3400 n         1 MOL     -0.796887
     67 O11         3.1560    4.4820   -6.1360 o         1 MOL     -0.568158
     68 H28         6.6630    3.4230   -2.8240 hn        1 MOL      0.340648
     69 H29         3.8350    2.5030   -2.9780 h1        1 MOL      0.009268
     70 H30         4.8520    2.0260   -5.1950 hc        1 MOL      0.186435
     71 H31         5.3920    3.6160   -5.2900 hc        1 MOL      0.186435
     72 H32         2.3550    1.7520   -4.9380 hn        1 MOL      0.348762
     73 H33         1.3010    2.8840   -5.6010 hn        1 MOL      0.348762
     74 N8          3.3490    4.9200   -2.2140 n         1 MOL     -0.353137
     75 C23         2.0620    4.1330   -2.0400 c3        1 MOL     -0.164913
     76 C24         1.0180    4.8790   -1.1550 c         1 MOL      0.719813
     77 O12         1.2690    6.0050   -0.6860 o         1 MOL     -0.536164
     78 H34         3.3450    5.8540   -1.8460 hn        1 MOL      0.269939
     79 H35         2.2090    3.1090   -1.6890 h1        1 MOL      0.074794
     80 H36         1.7070    4.0820   -3.0710 h1        1 MOL      0.074794
     81 N9         -0.1230    4.2660   -1.0440 n         1 MOL     -0.574142
     82 C25        -1.1920    4.6040   -0.0230 c3        1 MOL      0.134636
     83 C26        -2.1710    3.4780    0.0910 c         1 MOL      0.590605
     84 O13        -2.0750    2.4700   -0.5520 o         1 MOL     -0.524536
     85 C27        -1.9050    5.9070   -0.5960 c3        1 MOL     -0.195856
     86 C28        -2.7460    6.6040    0.4770 ca        1 MOL     -0.034900
     87 C29        -4.1370    6.6140    0.3590 ca        1 MOL     -0.052121
     88 C30        -2.1210    7.1730    1.5890 ca        1 MOL     -0.052121
     89 C31        -4.8270    7.2070    1.4400 ca        1 MOL     -0.326455
     90 C32        -2.8640    7.7720    2.6210 ca        1 MOL     -0.326455
     91 C33        -4.2380    7.7070    2.5530 ca        1 MOL      0.448121
     92 O14        -4.9180    8.3240    3.5530 oh        1 MOL     -0.564145
     93 H37        -0.0320    3.2890   -1.2820 hn        1 MOL      0.263834
     94 H38        -0.8450    4.8440    0.9780 h1        1 MOL      0.042404
     95 H39        -2.5070    5.5480   -1.4340 hc        1 MOL      0.107666
     96 H40        -1.1630    6.5460   -1.0840 hc        1 MOL      0.107666
     97 H41        -4.5810    6.1700   -0.5210 ha        1 MOL      0.120169
     98 H42        -1.0600    7.1560    1.7760 ha        1 MOL      0.120169
     99 H43        -5.9120    7.2240    1.3510 ha        1 MOL      0.151238
    100 H44        -2.2600    8.2130    3.3950 ha        1 MOL      0.151238
    101 H45        -4.3580    8.7550    4.1910 ho        1 MOL      0.397631
    102 N10        -3.2190    3.6610    0.8640 n         1 MOL     -0.440836
    103 C34        -4.3350    2.7540    1.1850 c3        1 MOL     -0.133860
    104 C35        -5.5320    2.8280    0.1600 c         1 MOL      0.712108
    105 O15        -5.6740    3.8310   -0.5240 o         1 MOL     -0.521731
    106 C36        -4.7320    2.8590    2.6770 c3        1 MOL      0.261538
    107 C37        -3.7780    2.0910    3.5960 c3        1 MOL      0.041088
    108 C38        -4.8180    4.2850    3.1670 c3        1 MOL     -0.147981
    109 C39        -4.1690    1.9490    5.0290 c3        1 MOL     -0.141102
    110 H46        -3.4160    4.5440    1.3090 hn        1 MOL      0.226036
    111 H47        -3.9840    1.7370    1.0120 h1        1 MOL      0.031913
    112 H48        -5.7030    2.3640    2.7240 hc        1 MOL     -0.058205
    113 H49        -2.7740    2.5150    3.5240 hc        1 MOL     -0.000339
    114 H50        -3.7960    1.0540    3.2620 hc        1 MOL     -0.000339
    115 H51        -5.3700    4.3500    4.1020 hc        1 MOL      0.033817
    116 H52        -3.8200    4.7250    3.2520 hc        1 MOL      0.033817
    117 H53        -5.3680    4.8250    2.3960 hc        1 MOL      0.033817
    118 H54        -3.9000    2.8480    5.5940 hc        1 MOL      0.029992
    119 H55        -5.2530    1.9040    5.1490 hc        1 MOL      0.029992
    120 H56        -3.7180    1.0520    5.4340 hc        1 MOL      0.029992
    121 N11        -6.3710    1.7670    0.0970 n         1 MOL     -0.518724
    122 C40        -7.5180    1.6030   -0.7900 c3        1 MOL      0.004533
    123 C41        -7.3180    0.2970   -1.6400 c         1 MOL      0.695208
    124 O16        -6.4590   -0.4850   -1.3090 o         1 MOL     -0.538145
    125 C42        -8.7750    1.6940    0.0380 c3        1 MOL      0.084750
    126 O17        -8.6550    0.8840    1.1890 oh        1 MOL     -0.597290
    127 H57        -6.2400    1.0040    0.7480 hn        1 MOL      0.324940
    128 H58        -7.5600    2.4940   -1.4140 h1        1 MOL      0.061139
    129 H59        -9.7110    1.4310   -0.4510 h1        1 MOL      0.038019
    130 H60        -8.7840    2.7390    0.3480 h1        1 MOL      0.038019
    131 H61        -9.5500    0.8340    1.5360 ho        1 MOL      0.414082
    132 N12        -8.1500    0.1200   -2.6980 n         1 MOL     -0.726670
    133 C43        -8.2280   -1.1390   -3.4130 c3        1 MOL      0.401052
    134 C44        -8.0740   -2.5240   -2.5780 c         1 MOL      0.351204
    135 O18        -7.6520   -3.5280   -3.1450 o         1 MOL     -0.454817
    136 C45        -7.2010   -1.0670   -4.5450 c3        1 MOL     -0.293287
    137 H62        -8.7620    0.8720   -2.9710 hn        1 MOL      0.338699
    138 H63        -9.1850   -1.1880   -3.9170 h1        1 MOL      0.014043
    139 H64        -7.3140   -0.1720   -5.1540 hc        1 MOL      0.082235
    140 H65        -6.1430   -1.1640   -4.3050 hc        1 MOL      0.082235
    141 H66        -7.4850   -1.9570   -5.1160 hc        1 MOL      0.082235
    142 N13        -8.4860   -2.5410   -1.3220 n         1 MOL     -0.524853
    143 C46        -8.6720   -3.7850   -0.5140 c3        1 MOL      0.368124
    144 C47        -7.4280   -4.6290   -0.2690 c         1 MOL      0.528685
    145 O19        -7.5530   -5.8370   -0.4350 o         1 MOL     -0.505684
    146 C48        -9.8810   -4.4800   -1.1060 c3        1 MOL     -0.430856
    147 H67        -9.0210   -1.7320   -1.0510 hn        1 MOL      0.281398
    148 H68        -8.8760   -3.4530    0.5000 h1        1 MOL     -0.037309
    149 H69        -9.4840   -5.1140   -1.9050 hc        1 MOL      0.116654
    150 H70       -10.3040   -5.1740   -0.3730 hc        1 MOL      0.116654
    151 H71       -10.5700   -3.7430   -1.5290 hc        1 MOL      0.116654
    152 N14        -6.3380   -3.9610    0.2110 n         1 MOL     -0.387500
    153 C49        -5.1080   -4.6990    0.6860 c3        1 MOL     -0.029396
    154 C50        -5.4280   -5.2890    2.1070 c         1 MOL      0.479305
    155 O20        -5.5270   -6.4950    2.3050 o         1 MOL     -0.501981
    156 C51        -3.8160   -3.8860    0.6880 c3        1 MOL      0.002816
    157 C52        -2.4870   -4.6440    1.1600 c3        1 MOL     -0.124918
    158 C53        -1.2570   -4.2000    0.3030 c         1 MOL      0.803339
    159 O21        -0.9210   -4.7850   -0.7660 o         1 MOL     -0.801233
    160 O22        -0.4130   -3.3520    0.6900 o         1 MOL     -0.801233
    161 H72        -6.4570   -3.0450    0.6130 hn        1 MOL      0.231953
    162 H73        -5.0360   -5.5010   -0.0530 h1        1 MOL      0.132839
    163 H74        -4.0070   -3.0190    1.3150 hc        1 MOL      0.018283
    164 H75        -3.6180   -3.5770   -0.3380 hc        1 MOL      0.018283
    165 H76        -2.6660   -5.7140    1.1020 hc        1 MOL      0.029733
    166 H77        -2.3010   -4.3930    2.2060 hc        1 MOL      0.029733
    167 N15        -5.7310   -4.3920    3.0690 n         1 MOL     -0.354768
    168 C54        -6.3650   -4.7190    4.3680 c3        1 MOL     -0.174019
    169 H78        -5.7760   -4.2880    5.1780 h1        1 MOL      0.100400
    170 H79        -7.3740   -4.3080    4.3950 h1        1 MOL      0.100400
    171 H80        -6.4100   -5.8010    4.4900 h1        1 MOL      0.100400
    172 H81        -5.7040   -3.4180    2.8080 hn        1 MOL      0.270396
    173 Ca1         1.5010   -4.2360   -1.3060 Ca        1 MOL      1.796216
    174 O23         2.6830   -1.6790   -1.3910 oh        1 MOL     -0.815443
    175 H82         2.1910   -0.9390   -1.7630 ho        1 MOL      0.402863
    176 H83         3.1650   -1.2880   -0.6580 ho        1 MOL      0.402863
    177 O24         0.0250   -2.2680   -2.4080 oh        1 MOL     -0.815443
    178 H84        -0.9270   -2.4080   -2.4290 ho        1 MOL      0.402863
    179 H85         0.1390   -1.3280   -2.5250 ho        1 MOL      0.402863
    180 O25         1.7270   -6.0780    0.8100 oh        1 MOL     -0.815443
    181 H86         1.5580   -6.9760    0.5120 ho        1 MOL      0.402863
    182 H87         2.3050   -6.1760    1.5620 ho        1 MOL      0.402863
    183 O26         2.3260   -6.7060   -2.2800 oh        1 MOL     -0.815443
    184 H88         3.1180   -7.0600   -2.6800 ho        1 MOL      0.402863
    185 H89         1.6060   -7.0650   -2.7950 ho        1 MOL      0.402863
    186 O27         0.6400   -4.9910   -3.7660 oh        1 MOL     -0.815443
    187 H90         0.6940   -4.5520   -4.6130 ho        1 MOL      0.402863
    188 H91        -0.1860   -5.4640   -3.8080 ho        1 MOL      0.402863
    189 O28         2.4020   -2.8150    1.3090 oh        1 MOL     -0.815443
    190 H92         1.5210   -2.7730    1.6730 ho        1 MOL      0.402863
    191 H93         2.7480   -1.9260    1.4250 ho        1 MOL      0.402863
@<TRIPOS>BOND
     1    1    2 1   
     2    1    4 1   
     3    1    5 1   
     4    1    6 1   
     5    2    3 2   
     6    2    7 1   
     7    7    8 1   
     8    7   15 1   
     9    8    9 1   
    10    8   11 1   
    11    8   16 1   
    12    9   10 2   
    13    9   19 1   
    14   11   12 1   
    15   11   17 1   
    16   11   18 1   
    17   12   13 1   
    18   12   14 1   
    19   19   20 1   
    20   19   28 1   
    21   20   21 1   
    22   20   23 1   
    23   20   29 1   
    24   21   22 2   
    25   21   41 1   
    26   23   24 1   
    27   23   30 1   
    28   23   31 1   
    29   24   25 1   
    30   24   32 1   
    31   24   33 1   
    32   25   26 1   
    33   25   34 1   
    34   25   35 1   
    35   26   27 1   
    36   26   36 1   
    37   26   37 1   
    38   27   38 1   
    39   27   39 1   
    40   27   40 1   
    41   41   42 1   
    42   41   49 1   
    43   42   43 1   
    44   42   45 1   
    45   42   50 1   
    46   43   44 2   
    47   43   53 1   
    48   45   46 1   
    49   45   51 1   
    50   45   52 1   
    51   46   47 1   
    52   46   48 1   
    53   53   54 1   
    54   53   57 1   
    55   54   55 1   
    56   54   58 1   
    57   54   59 1   
    58   55   56 2   
    59   55   60 1   
    60   60   61 1   
    61   60   68 1   
    62   61   62 1   
    63   61   64 1   
    64   61   69 1   
    65   62   63 2   
    66   62   74 1   
    67   64   65 1   
    68   64   70 1   
    69   64   71 1   
    70   65   66 1   
    71   65   67 2   
    72   66   72 1   
    73   66   73 1   
    74   74   75 1   
    75   74   78 1   
    76   75   76 1   
    77   75   79 1   
    78   75   80 1   
    79   76   77 2   
    80   76   81 1   
    81   81   82 1   
    82   81   93 1   
    83   82   83 1   
    84   82   85 1   
    85   82   94 1   
    86   83   84 2   
    87   83  102 1   
    88   85   86 1   
    89   85   95 1   
    90   85   96 1   
    91   86   87 ar  
    92   86   88 ar  
    93   87   89 ar  
    94   87   97 1   
    95   88   90 ar  
    96   88   98 1   
    97   89   91 ar  
    98   89   99 1   
    99   90   91 ar  
   100   90  100 1   
   101   91   92 1   
   102   92  101 1   
   103  102  103 1   
   104  102  110 1   
   105  103  104 1   
   106  103  106 1   
   107  103  111 1   
   108  104  105 2   
   109  104  121 1   
   110  106  107 1   
   111  106  108 1   
   112  106  112 1   
   113  107  109 1   
   114  107  113 1   
   115  107  114 1   
   116  108  115 1   
   117  108  116 1   
   118  108  117 1   
   119  109  118 1   
   120  109  119 1   
   121  109  120 1   
   122  121  122 1   
   123  121  127 1   
   124  122  123 1   
   125  122  125 1   
   126  122  128 1   
   127  123  124 2   
   128  123  132 1   
   129  125  126 1   
   130  125  129 1   
   131  125  130 1   
   132  126  131 1   
   133  132  133 1   
   134  132  137 1   
   135  133  134 1   
   136  133  136 1   
   137  133  138 1   
   138  134  135 2   
   139  134  142 1   
   140  136  139 1   
   141  136  140 1   
   142  136  141 1   
   143  142  143 1   
   144  142  147 1   
   145  143  144 1   
   146  143  146 1   
   147  143  148 1   
   148  144  145 2   
   149  144  152 1   
   150  146  149 1   
   151  146  150 1   
   152  146  151 1   
   153  152  153 1   
   154  152  161 1   
   155  153  154 1   
   156  153  156 1   
   157  153  162 1   
   158  154  155 2   
   159  154  167 1   
   160  156  157 1   
   161  156  163 1   
   162  156  164 1   
   163  157  158 1   
   164  157  165 1   
   165  157  166 1   
   166  158  159 1   
   167  158  160 1   
   168  167  168 1   
   169  167  172 1   
   170  168  169 1   
   171  168  170 1   
   172  168  171 1   
   173  174  175 1   
   174  174  176 1   
   175  177  178 1   
   176  177  179 1   
   177  180  181 1   
   178  180  182 1   
   179  183  184 1   
   180  183  185 1   
   181  186  187 1   
   182  186  188 1   
   183  189  190 1   
   184  189  191 1   
@<TRIPOS>SUBSTRUCTURE
     1 MOL         1 TEMP              0 ****  ****    0 ROOT
