@<TRIPOS>MOLECULE
MOL
  192   187     1     0     0
SMALL
resp


@<TRIPOS>ATOM
      1 C1          9.7790    0.7950    1.8640 c3        1 MOL     -0.494167
      2 C2          8.6280    0.9350    0.8520 c         1 MOL      0.556742
      3 O1          8.0020    2.0410    0.7690 o         1 MOL     -0.561070
      4 H1          9.3680    0.6540    2.8640 hc        1 MOL      0.128654
      5 H2         10.3940   -0.0660    1.6000 hc        1 MOL      0.128654
      6 H3         10.3900    1.6970    1.8470 hc        1 MOL      0.128654
      7 N1          8.4600   -0.0690    0.0190 n         1 MOL     -0.210150
      8 C3          7.4140   -0.1660   -1.0030 c3        1 MOL     -0.021225
      9 C4          6.8040   -1.5300   -1.0670 c         1 MOL      0.405089
     10 O2          6.4190   -2.0330   -2.1120 o         1 MOL     -0.405296
     11 C5          7.8610    0.3700   -2.3570 c3        1 MOL     -0.163208
     12 C6          9.2540   -0.0560   -2.8140 c         1 MOL      0.710686
     13 O3          9.9220    0.7680   -3.4050 o         1 MOL     -0.635414
     14 O4          9.7390   -1.1550   -2.5480 o         1 MOL     -0.635414
     15 H4          9.1470   -0.7950    0.1120 hn        1 MOL      0.180778
     16 H5          6.6110    0.4810   -0.6340 h1        1 MOL      0.022295
     17 H6          7.9350    1.4620   -2.3230 hc        1 MOL      0.077125
     18 H7          7.0640    0.2480   -3.0880 hc        1 MOL      0.077125
     19 N2          6.7100   -2.2860    0.0450 n         1 MOL     -0.415105
     20 C7          6.1710   -3.6060    0.1100 c3        1 MOL      0.085454
     21 C8          4.7200   -3.7940   -0.3870 c         1 MOL      0.399479
     22 O5          4.4670   -4.7470   -1.1340 o         1 MOL     -0.539625
     23 C9          6.3880   -4.2060    1.4970 c3        1 MOL     -0.219247
     24 C10         7.9340   -4.2680    1.7800 c3        1 MOL      0.280857
     25 C11         8.2660   -4.8080    3.1520 c3        1 MOL     -0.443255
     26 C12         9.7480   -4.8790    3.3400 c3        1 MOL      0.267675
     27 N3         10.1890   -5.1720    4.6940 n4        1 MOL     -0.209118
     28 H8          6.9080   -1.7910    0.9030 hn        1 MOL      0.194681
     29 H9          6.7720   -4.1160   -0.6340 h1        1 MOL      0.112106
     30 H10         6.1200   -5.2560    1.4390 hc        1 MOL      0.082885
     31 H11         5.8310   -3.7170    2.3010 hc        1 MOL      0.082885
     32 H12         8.3150   -3.2500    1.8230 hc        1 MOL     -0.017144
     33 H13         8.3930   -4.8560    0.9820 hc        1 MOL     -0.017144
     34 H14         7.8990   -5.8310    3.1110 hc        1 MOL      0.121108
     35 H15         7.9160   -4.1690    3.9570 hc        1 MOL      0.121108
     36 H16        10.2230   -3.9150    3.1450 hx        1 MOL      0.015831
     37 H17        10.1680   -5.5950    2.6390 hx        1 MOL      0.015831
     38 H18         9.8910   -6.0270    5.1340 hn        1 MOL      0.225937
     39 H19        11.1920   -5.1090    4.7540 hn        1 MOL      0.225937
     40 H20         9.9030   -4.3960    5.2670 hn        1 MOL      0.225937
     41 N4          3.7670   -2.9890   -0.1060 n         1 MOL     -0.305490
     42 C13         3.8160   -1.7020    0.5910 c3        1 MOL     -0.002591
     43 C14         3.8860   -0.4650   -0.3640 c         1 MOL      0.265310
     44 O6          3.8180   -0.5380   -1.6480 o         1 MOL     -0.360443
     45 C15         2.6410   -1.6070    1.6030 c3        1 MOL     -0.184631
     46 C16         1.2780   -1.9290    0.9580 c         1 MOL      0.628618
     47 O7          1.0290   -1.2870   -0.0810 o         1 MOL     -0.666797
     48 O8          0.5260   -2.7900    1.5100 o         1 MOL     -0.666797
     49 H21         2.8750   -3.2000   -0.5360 hn        1 MOL      0.338005
     50 H22         4.7140   -1.6660    1.2050 h1        1 MOL      0.102331
     51 H23         2.6280   -0.5930    2.0090 hc        1 MOL      0.038890
     52 H24         2.7870   -2.2800    2.4460 hc        1 MOL      0.038890
     53 N5          4.0450    0.7160    0.2530 n         1 MOL     -0.273005
     54 C17         4.2020    2.0750   -0.3440 c3        1 MOL     -0.141419
     55 C18         2.8050    2.5730   -0.9000 c         1 MOL      0.705001
     56 O9          1.7520    1.9130   -0.8690 o         1 MOL     -0.595936
     57 H25         4.2320    0.8000    1.2450 hn        1 MOL      0.246319
     58 H26         4.9230    2.0520   -1.1590 h1        1 MOL      0.119209
     59 H27         4.7060    2.7090    0.3920 h1        1 MOL      0.119209
     60 N6          2.8200    3.7880   -1.4130 n         1 MOL     -0.624498
     61 C19         1.7340    4.5160   -2.0600 c3        1 MOL      0.366607
     62 C20         1.9710    6.0060   -1.9910 c         1 MOL      0.373798
     63 O10         3.1080    6.4750   -1.6440 o         1 MOL     -0.532634
     64 C21         1.5510    4.1710   -3.5790 c3        1 MOL     -0.402282
     65 C22         1.2010    2.6300   -3.8190 c         1 MOL      0.648183
     66 O11         2.0220    1.8400   -4.2470 o         1 MOL     -0.621120
     67 O12         0.0580    2.2230   -3.3590 o         1 MOL     -0.621120
     68 H28         3.6790    4.3120   -1.4990 hn        1 MOL      0.314060
     69 H29         0.8000    4.2350   -1.5620 h1        1 MOL      0.016744
     70 H30         2.4680    4.5180   -4.0530 hc        1 MOL      0.108995
     71 H31         0.8210    4.8240   -4.0490 hc        1 MOL      0.108995
     72 N7          1.0000    6.9090   -1.9920 n         1 MOL     -0.377072
     73 C23        -0.4380    6.7540   -2.2590 c3        1 MOL     -0.008330
     74 C24        -1.2810    6.3350   -1.0640 c         1 MOL      0.541249
     75 O13        -0.9950    6.7200    0.0830 o         1 MOL     -0.517500
     76 H32         1.3740    7.8440   -1.9100 hn        1 MOL      0.309228
     77 H33        -0.5680    6.0610   -3.0870 h1        1 MOL      0.055434
     78 H34        -0.8510    7.6840   -2.6450 h1        1 MOL      0.055434
     79 N8         -2.2340    5.4370   -1.2590 n         1 MOL     -0.391383
     80 C25        -2.8620    4.5980   -0.2300 c3        1 MOL     -0.382456
     81 C26        -1.8360    3.6850    0.4140 c         1 MOL      0.909444
     82 O14        -1.2380    2.8390   -0.2740 o         1 MOL     -0.780217
     83 C27        -4.0830    3.8320   -0.8770 c3        1 MOL      0.484064
     84 C28        -5.1650    4.7570   -1.4250 c3        1 MOL     -0.482884
     85 O15        -4.6920    3.0020    0.1930 oh        1 MOL     -0.669057
     86 H35        -2.4210    5.1360   -2.2120 hn        1 MOL      0.246427
     87 H36        -3.1880    5.3040    0.5310 h1        1 MOL      0.143026
     88 H37        -3.7290    3.1850   -1.6800 h1        1 MOL      0.100173
     89 H38        -5.0840    3.6030    0.8390 ho        1 MOL      0.383697
     90 H39        -6.1600    4.3120   -1.4080 hc        1 MOL      0.133560
     91 H40        -5.2910    5.5280   -0.6740 hc        1 MOL      0.133560
     92 H41        -4.8700    5.1150   -2.4200 hc        1 MOL      0.133560
     93 N9         -1.5750    3.8170    1.7200 n         1 MOL     -0.521250
     94 C29        -0.6870    3.0260    2.5110 c3        1 MOL      0.136042
     95 C30        -0.9750    1.4960    2.3340 c         1 MOL      0.331788
     96 O16        -0.4930    0.8720    1.4020 o         1 MOL     -0.489593
     97 C31         0.8550    3.4050    2.2000 c3        1 MOL      0.255102
     98 C32         1.0820    4.8730    2.3760 c3        1 MOL     -0.280355
     99 C33         2.0010    2.7230    3.0060 c3        1 MOL     -0.399451
    100 C34         0.6140    5.5360    3.6500 c3        1 MOL     -0.014273
    101 H42        -2.0560    4.5360    2.2400 hn        1 MOL      0.279125
    102 H43        -0.8020    3.2730    3.5670 h1        1 MOL      0.048157
    103 H44         1.0680    3.3030    1.1390 hc        1 MOL     -0.034532
    104 H45         0.5640    5.3720    1.5550 hc        1 MOL      0.114017
    105 H46         2.1550    5.0450    2.3850 hc        1 MOL      0.114017
    106 H47         2.0410    1.6580    2.7890 hc        1 MOL      0.099756
    107 H48         2.9900    3.0940    2.7580 hc        1 MOL      0.099756
    108 H49         1.8650    2.8970    4.0770 hc        1 MOL      0.099756
    109 H50         1.1040    6.5050    3.7020 hc        1 MOL      0.003889
    110 H51        -0.4670    5.6240    3.6110 hc        1 MOL      0.003889
    111 H52         0.7340    4.9780    4.5880 hc        1 MOL      0.003889
    112 N10        -1.8160    0.9310    3.2230 n         1 MOL     -0.233220
    113 C35        -2.2470   -0.4690    3.1400 c3        1 MOL     -0.002327
    114 C36        -3.7670   -0.6240    3.0620 c         1 MOL      0.579067
    115 O17        -4.3140   -1.7020    3.1650 o         1 MOL     -0.594041
    116 C37        -1.5920   -1.4640    4.1150 c3        1 MOL      0.209957
    117 C38        -1.6900   -1.2240    5.6360 c3        1 MOL     -0.377401
    118 O18        -0.2160   -1.4230    3.8370 oh        1 MOL     -0.568157
    119 H53        -1.9230    1.4680    4.0800 hn        1 MOL      0.220276
    120 H54        -1.8580   -0.8350    2.1930 h1        1 MOL      0.093966
    121 H55        -1.9120   -2.4820    3.8810 h1        1 MOL      0.074967
    122 H56        -0.1030   -1.8530    2.9880 ho        1 MOL      0.374294
    123 H57        -1.0800   -0.4050    6.0300 hc        1 MOL      0.102775
    124 H58        -2.6770   -1.2430    6.1020 hc        1 MOL      0.102775
    125 H59        -1.2030   -2.0950    6.0770 hc        1 MOL      0.102775
    126 N11        -4.5020    0.4810    2.9930 n         1 MOL     -0.292403
    127 C39        -5.9780    0.3440    2.8210 c3        1 MOL     -0.066338
    128 C40        -6.3610   -0.1590    1.4270 c         1 MOL      0.840321
    129 O19        -6.5420    0.6100    0.4980 o         1 MOL     -0.557089
    130 C41        -6.5650    1.7680    2.9370 c3        1 MOL      0.411204
    131 C42        -8.0530    1.7000    3.0470 c3        1 MOL     -0.530722
    132 O20        -6.0850    2.3120    4.1030 oh        1 MOL     -0.632151
    133 H60        -4.0340    1.3760    3.0190 hn        1 MOL      0.133357
    134 H61        -6.4040   -0.2760    3.6000 h1        1 MOL      0.084968
    135 H62        -6.2860    2.4220    2.1090 h1        1 MOL      0.015968
    136 H63        -6.6050    3.0980    4.2960 ho        1 MOL      0.392488
    137 H64        -8.3930    1.0620    2.2320 hc        1 MOL      0.130033
    138 H65        -8.4090    1.3520    4.0150 hc        1 MOL      0.130033
    139 H66        -8.4260    2.6940    2.7930 hc        1 MOL      0.130033
    140 N12        -6.5740   -1.5300    1.3840 n         1 MOL     -0.970203
    141 C43        -6.6430   -2.3390    0.0930 c3        1 MOL      0.454694
    142 C44        -5.3620   -2.2190   -0.7550 c         1 MOL      0.518239
    143 O21        -4.9320   -1.1350   -1.0210 o         1 MOL     -0.502404
    144 C45        -7.9240   -2.1440   -0.7460 c3        1 MOL     -0.518911
    145 C46        -9.1950   -2.5600    0.0770 c3        1 MOL      0.143972
    146 C47       -10.3270   -2.7090   -0.9090 c3        1 MOL      0.027661
    147 C48       -11.6180   -3.2660   -0.3330 c3        1 MOL      0.131098
    148 N13       -12.7940   -3.0110   -1.1670 n4        1 MOL     -0.312159
    149 H67        -6.2350   -1.9950    2.2140 hn        1 MOL      0.410511
    150 H68        -6.6770   -3.3750    0.4190 h1        1 MOL     -0.000037
    151 H69        -7.7750   -2.7310   -1.6500 hc        1 MOL      0.152932
    152 H70        -7.9820   -1.0950   -1.0310 hc        1 MOL      0.152932
    153 H71        -9.5240   -1.8020    0.7850 hc        1 MOL      0.016847
    154 H72        -9.0690   -3.5260    0.5640 hc        1 MOL      0.016847
    155 H73        -9.9840   -3.3800   -1.6970 hc        1 MOL      0.009648
    156 H74       -10.5130   -1.6960   -1.2870 hc        1 MOL      0.009648
    157 H75       -11.6360   -2.8930    0.6910 hx        1 MOL      0.023095
    158 H76       -11.4350   -4.3350   -0.2090 hx        1 MOL      0.023095
    159 H77       -12.9100   -2.0250   -1.3800 hn        1 MOL      0.235879
    160 H78       -12.8410   -3.6890   -1.9110 hn        1 MOL      0.235879
    161 H79       -13.5970   -3.2630   -0.6140 hn        1 MOL      0.235879
    162 N14        -4.7350   -3.3560   -1.1380 n         1 MOL     -0.560182
    163 C49        -3.4440   -3.3510   -1.8860 c3        1 MOL      0.320162
    164 C50        -2.2120   -2.9200   -1.0700 c         1 MOL      0.419728
    165 O22        -1.6230   -1.8760   -1.3770 o         1 MOL     -0.609809
    166 C51        -3.2210   -4.6390   -2.6660 c3        1 MOL     -0.057730
    167 C52        -4.3530   -4.9820   -3.6180 c3        1 MOL     -0.156241
    168 C53        -4.1220   -6.3290   -4.2920 c         1 MOL      0.662790
    169 O23        -4.8110   -7.3250   -4.0230 o         1 MOL     -0.622091
    170 O24        -3.1600   -6.4940   -5.0360 o         1 MOL     -0.622091
    171 H80        -5.2340   -4.2170   -0.9380 hn        1 MOL      0.289402
    172 H81        -3.4740   -2.5410   -2.6180 h1        1 MOL      0.028259
    173 H82        -3.0480   -5.4520   -1.9740 hc        1 MOL      0.061838
    174 H83        -2.3510   -4.4910   -3.3040 hc        1 MOL      0.061838
    175 H84        -4.4020   -4.1510   -4.3250 hc        1 MOL     -0.004538
    176 H85        -5.3240   -4.9840   -3.1140 hc        1 MOL     -0.004538
    177 N15        -1.7440   -3.5920   -0.0490 n         1 MOL     -0.395007
    178 C54        -2.2470   -4.8060    0.6220 c3        1 MOL     -0.053521
    179 H86        -2.9290   -4.5210    1.4230 h1        1 MOL      0.050150
    180 H87        -2.7760   -5.4280   -0.1010 h1        1 MOL      0.050150
    181 H88        -1.4100   -5.3650    1.0400 h1        1 MOL      0.050150
    182 H89        -0.8110   -3.3320    0.2380 hn        1 MOL      0.378121
    183 Ca1        -0.5090    0.6020   -1.2010 Ca        1 MOL      1.831409
    184 O25        -2.3330    0.5170   -3.2510 oh        1 MOL     -0.917977
    185 H90        -2.2870   -0.2360   -3.8370 ho        1 MOL      0.428019
    186 H91        -2.9040    1.1340   -3.7010 ho        1 MOL      0.428019
    187 O26         1.2780   -0.3110   -3.1640 oh        1 MOL     -0.917977
    188 H92         1.4950    0.5050   -3.6110 ho        1 MOL      0.428019
    189 H93         2.1200   -0.6310   -2.8230 ho        1 MOL      0.428019
    190 O27        -3.2220    0.8700   -0.3640 oh        1 MOL     -0.917977
    191 H94        -3.7590    0.0970   -0.5360 ho        1 MOL      0.428019
    192 H95        -3.8510    1.5960   -0.3390 ho        1 MOL      0.428019
@<TRIPOS>BOND
     1    1    2 1   
     2    1    4 1   
     3    1    5 1   
     4    1    6 1   
     5    2    3 2   
     6    2    7 1   
     7    7    8 1   
     8    7   15 1   
     9    8    9 1   
    10    8   11 1   
    11    8   16 1   
    12    9   10 2   
    13    9   19 1   
    14   11   12 1   
    15   11   17 1   
    16   11   18 1   
    17   12   13 1   
    18   12   14 1   
    19   19   20 1   
    20   19   28 1   
    21   20   21 1   
    22   20   23 1   
    23   20   29 1   
    24   21   22 2   
    25   21   41 1   
    26   23   24 1   
    27   23   30 1   
    28   23   31 1   
    29   24   25 1   
    30   24   32 1   
    31   24   33 1   
    32   25   26 1   
    33   25   34 1   
    34   25   35 1   
    35   26   27 1   
    36   26   36 1   
    37   26   37 1   
    38   27   38 1   
    39   27   39 1   
    40   27   40 1   
    41   41   42 1   
    42   41   49 1   
    43   42   43 1   
    44   42   45 1   
    45   42   50 1   
    46   43   44 2   
    47   43   53 1   
    48   45   46 1   
    49   45   51 1   
    50   45   52 1   
    51   46   47 1   
    52   46   48 1   
    53   53   54 1   
    54   53   57 1   
    55   54   55 1   
    56   54   58 1   
    57   54   59 1   
    58   55   56 2   
    59   55   60 1   
    60   60   61 1   
    61   60   68 1   
    62   61   62 1   
    63   61   64 1   
    64   61   69 1   
    65   62   63 2   
    66   62   72 1   
    67   64   65 1   
    68   64   70 1   
    69   64   71 1   
    70   65   66 1   
    71   65   67 1   
    72   72   73 1   
    73   72   76 1   
    74   73   74 1   
    75   73   77 1   
    76   73   78 1   
    77   74   75 2   
    78   74   79 1   
    79   79   80 1   
    80   79   86 1   
    81   80   81 1   
    82   80   83 1   
    83   80   87 1   
    84   81   82 2   
    85   81   93 1   
    86   83   84 1   
    87   83   85 1   
    88   83   88 1   
    89   84   90 1   
    90   84   91 1   
    91   84   92 1   
    92   85   89 1   
    93   93   94 1   
    94   93  101 1   
    95   94   95 1   
    96   94   97 1   
    97   94  102 1   
    98   95   96 2   
    99   95  112 1   
   100   97   98 1   
   101   97   99 1   
   102   97  103 1   
   103   98  100 1   
   104   98  104 1   
   105   98  105 1   
   106   99  106 1   
   107   99  107 1   
   108   99  108 1   
   109  100  109 1   
   110  100  110 1   
   111  100  111 1   
   112  112  113 1   
   113  112  119 1   
   114  113  114 1   
   115  113  116 1   
   116  113  120 1   
   117  114  115 2   
   118  114  126 1   
   119  116  117 1   
   120  116  118 1   
   121  116  121 1   
   122  117  123 1   
   123  117  124 1   
   124  117  125 1   
   125  118  122 1   
   126  126  127 1   
   127  126  133 1   
   128  127  128 1   
   129  127  130 1   
   130  127  134 1   
   131  128  129 2   
   132  128  140 1   
   133  130  131 1   
   134  130  132 1   
   135  130  135 1   
   136  131  137 1   
   137  131  138 1   
   138  131  139 1   
   139  132  136 1   
   140  140  141 1   
   141  140  149 1   
   142  141  142 1   
   143  141  144 1   
   144  141  150 1   
   145  142  143 2   
   146  142  162 1   
   147  144  145 1   
   148  144  151 1   
   149  144  152 1   
   150  145  146 1   
   151  145  153 1   
   152  145  154 1   
   153  146  147 1   
   154  146  155 1   
   155  146  156 1   
   156  147  148 1   
   157  147  157 1   
   158  147  158 1   
   159  148  159 1   
   160  148  160 1   
   161  148  161 1   
   162  162  163 1   
   163  162  171 1   
   164  163  164 1   
   165  163  166 1   
   166  163  172 1   
   167  164  165 2   
   168  164  177 1   
   169  166  167 1   
   170  166  173 1   
   171  166  174 1   
   172  167  168 1   
   173  167  175 1   
   174  167  176 1   
   175  168  169 1   
   176  168  170 1   
   177  177  178 1   
   178  177  182 1   
   179  178  179 1   
   180  178  180 1   
   181  178  181 1   
   182  184  185 1   
   183  184  186 1   
   184  187  188 1   
   185  187  189 1   
   186  190  191 1   
   187  190  192 1   
@<TRIPOS>SUBSTRUCTURE
     1 MOL         1 TEMP              0 ****  ****    0 ROOT
