@<TRIPOS>MOLECULE
MOL
  198   191     1     0     0
SMALL
resp


@<TRIPOS>ATOM
      1 C1          4.5560    7.3410   -3.7760 c3        1 MOL     -0.435584
      2 C2          3.4800    6.5870   -2.9800 c         1 MOL      0.739412
      3 O1          3.4830    5.3690   -2.8820 o         1 MOL     -0.550667
      4 H1          4.2710    7.3760   -4.8270 hc        1 MOL      0.109541
      5 H2          4.6480    8.3560   -3.3920 hc        1 MOL      0.109541
      6 H3          5.5110    6.8260   -3.6760 hc        1 MOL      0.109541
      7 N1          2.5920    7.3470   -2.3100 n         1 MOL     -0.554865
      8 C3          1.6720    6.7950   -1.3290 c3        1 MOL      0.000778
      9 C4          2.3350    6.0510   -0.1060 c         1 MOL      0.649641
     10 O2          1.8080    5.0910    0.4230 o         1 MOL     -0.548717
     11 C5          0.4610    6.0420   -1.9770 c3        1 MOL     -0.150050
     12 C6         -0.3770    6.8690   -2.9130 c         1 MOL      0.690238
     13 O3         -0.8530    6.2040   -3.9030 o         1 MOL     -0.650207
     14 O4         -0.7140    8.0300   -2.6620 o         1 MOL     -0.650207
     15 H4          2.7720    8.3130   -2.0840 hn        1 MOL      0.308371
     16 H5          1.2940    7.5990   -0.6960 h1        1 MOL      0.057632
     17 H6         -0.1710    5.7450   -1.1460 hc        1 MOL      0.060994
     18 H7          0.7330    5.0770   -2.4180 hc        1 MOL      0.060994
     19 N2          3.3400    6.6840    0.4390 n         1 MOL     -0.590547
     20 C7          4.2440    6.1120    1.4190 c3        1 MOL      0.238202
     21 C8          5.0360    4.8630    1.0900 c         1 MOL      0.422099
     22 O5          6.2450    4.9590    0.8440 o         1 MOL     -0.565235
     23 C9          3.5690    5.9410    2.7730 c3        1 MOL     -0.203018
     24 C10         4.3470    5.5020    3.9510 c3        1 MOL     -0.001833
     25 C11         3.3890    4.6670    4.8980 c3        1 MOL     -0.002742
     26 C12         4.0680    4.3090    6.2310 c3        1 MOL      0.036964
     27 N3          5.0030    3.1420    6.1670 n4        1 MOL     -0.300288
     28 H8          3.7170    7.3700   -0.1960 hn        1 MOL      0.295478
     29 H9          4.9830    6.9140    1.4900 h1        1 MOL      0.033482
     30 H10         2.7900    5.1770    2.6470 hc        1 MOL      0.074748
     31 H11         3.0430    6.8500    3.0780 hc        1 MOL      0.074748
     32 H12         4.7510    6.3890    4.4560 hc        1 MOL      0.013007
     33 H13         5.2220    4.9500    3.6100 hc        1 MOL      0.013007
     34 H14         3.1270    3.6970    4.4660 hc        1 MOL      0.052684
     35 H15         2.4730    5.2470    5.0430 hc        1 MOL      0.052684
     36 H16         3.2320    4.1190    6.9090 hx        1 MOL      0.066028
     37 H17         4.6230    5.1490    6.6540 hx        1 MOL      0.066028
     38 H18         4.4960    2.2730    6.1660 hn        1 MOL      0.253365
     39 H19         5.5900    3.1320    5.3400 hn        1 MOL      0.253365
     40 H20         5.7560    3.0810    6.8390 hn        1 MOL      0.253365
     41 N4          4.3150    3.7440    0.9570 n         1 MOL     -0.405062
     42 C13         4.8320    2.3570    0.7510 c3        1 MOL      0.447831
     43 C14         4.2650    1.8570   -0.6010 c         1 MOL      0.378207
     44 O6          3.0210    1.9040   -0.7810 o         1 MOL     -0.516752
     45 C15         4.4290    1.5670    2.0430 c3        1 MOL     -0.499262
     46 C16         5.0460    0.1230    2.1370 c         1 MOL      0.824962
     47 O7          4.7250   -0.5640    3.1340 o         1 MOL     -0.764859
     48 O8          5.8290   -0.3680    1.2970 o         1 MOL     -0.764859
     49 H21         3.3160    3.8970    0.9180 hn        1 MOL      0.255353
     50 H22         5.9220    2.2990    0.6760 h1        1 MOL      0.020803
     51 H23         3.3350    1.5580    1.9850 hc        1 MOL      0.102145
     52 H24         4.9090    2.0950    2.8710 hc        1 MOL      0.102145
     53 N5          5.1320    1.3790   -1.4920 n         1 MOL     -0.297653
     54 C17         6.5680    1.5660   -1.7430 c3        1 MOL     -0.108035
     55 C18         7.3720    0.2650   -2.0060 c         1 MOL      0.494214
     56 O9          8.2640    0.2300   -2.8340 o         1 MOL     -0.543078
     57 H25         4.5650    0.9520   -2.2150 hn        1 MOL      0.250961
     58 H26         7.0270    2.1960   -0.9770 h1        1 MOL      0.103988
     59 H27         6.6380    2.1350   -2.6700 h1        1 MOL      0.103988
     60 N6          6.9290   -0.8460   -1.3740 n         1 MOL     -0.059651
     61 C19         7.4830   -2.1540   -1.5800 c3        1 MOL     -0.204419
     62 C20         6.4920   -3.2790   -1.1620 c         1 MOL     -0.069198
     63 O10         5.6400   -3.0190   -0.3270 o         1 MOL     -0.280998
     64 C21         8.8240   -2.3370   -0.8530 c3        1 MOL      0.008189
     65 C22         8.7810   -1.9500    0.6540 c         1 MOL      0.639983
     66 O11         7.9500   -2.5770    1.3520 o         1 MOL     -0.664327
     67 O12         9.6000   -1.2220    1.1250 o         1 MOL     -0.664327
     68 H28         6.2880   -0.7260   -0.6050 hn        1 MOL      0.153338
     69 H29         7.6780   -2.2320   -2.6460 h1        1 MOL      0.122335
     70 H30         9.4930   -1.6390   -1.3590 hc        1 MOL      0.020078
     71 H31         9.2700   -3.3180   -1.0110 hc        1 MOL      0.020078
     72 N7          6.5780   -4.4540   -1.8160 n         1 MOL     -0.016082
     73 C23         5.7690   -5.6270   -1.4400 c3        1 MOL     -0.297046
     74 C24         4.3030   -5.5520   -1.8660 c         1 MOL      0.636055
     75 O13         3.8720   -6.4580   -2.5270 o         1 MOL     -0.539341
     76 H32         7.1910   -4.5750   -2.6080 hn        1 MOL      0.270859
     77 H33         5.9150   -5.7010   -0.3540 h1        1 MOL      0.124581
     78 H34         6.1140   -6.5800   -1.8570 h1        1 MOL      0.124581
     79 N8          3.6100   -4.4590   -1.6590 n         1 MOL     -0.454537
     80 C25         2.4510   -3.9010   -2.3960 c3        1 MOL     -0.086328
     81 C26         1.7550   -2.7050   -1.7540 c         1 MOL      0.564291
     82 O14         2.3560   -2.0210   -0.9440 o         1 MOL     -0.460103
     83 C27         3.0150   -3.3490   -3.7050 c3        1 MOL      0.331574
     84 C28         4.0850   -2.2760   -3.7690 c3        1 MOL     -0.188596
     85 O15         3.3600   -4.3580   -4.6190 oh        1 MOL     -0.591918
     86 H35         4.0490   -3.7910   -1.0410 hn        1 MOL      0.144217
     87 H36         1.7670   -4.7140   -2.6490 h1        1 MOL      0.133815
     88 H37         2.1920   -2.7800   -4.1380 h1        1 MOL     -0.033819
     89 H38         3.5420   -4.0200   -5.5010 ho        1 MOL      0.393757
     90 H39         3.9900   -1.7130   -2.8490 hc        1 MOL      0.054705
     91 H40         5.0910   -2.6980   -3.6790 hc        1 MOL      0.054705
     92 H41         3.9970   -1.6220   -4.6290 hc        1 MOL      0.054705
     93 N9          0.4450   -2.4790   -2.1170 n         1 MOL     -0.450485
     94 C29        -0.3520   -1.3640   -1.6380 c3        1 MOL     -0.288667
     95 C30        -1.6260   -1.7050   -0.8920 c         1 MOL      0.550996
     96 O16        -2.3140   -0.8050   -0.4750 o         1 MOL     -0.531432
     97 C31        -0.6200   -0.3540   -2.6860 c3        1 MOL      0.316277
     98 C32        -1.5360   -0.9380   -3.9070 c3        1 MOL      0.033394
     99 C33         0.6900    0.0960   -3.2810 c3        1 MOL     -0.373285
    100 C34        -2.0590    0.2400   -4.7880 c3        1 MOL     -0.267492
    101 H42        -0.0430   -3.1510   -2.6930 hn        1 MOL      0.266838
    102 H43         0.1900   -0.7250   -0.9530 h1        1 MOL      0.182769
    103 H44        -1.0780    0.5630   -2.2960 hc        1 MOL      0.025334
    104 H45        -2.3710   -1.5130   -3.5030 hc        1 MOL     -0.004235
    105 H46        -0.9370   -1.5230   -4.5980 hc        1 MOL     -0.004235
    106 H47         1.4220    0.3430   -2.5010 hc        1 MOL      0.103791
    107 H48         1.0690   -0.6170   -4.0060 hc        1 MOL      0.103791
    108 H49         0.5470    0.9980   -3.8830 hc        1 MOL      0.103791
    109 H50        -2.7750    0.7440   -4.1490 hc        1 MOL      0.076101
    110 H51        -1.2200    0.9290   -4.9670 hc        1 MOL      0.076101
    111 H52        -2.6300   -0.1880   -5.6110 hc        1 MOL      0.076101
    112 N10        -1.9270   -3.0060   -0.5430 n         1 MOL     -0.310044
    113 C35        -2.9780   -3.4660    0.4330 c3        1 MOL     -0.145060
    114 C36        -4.1770   -4.0730   -0.3660 c         1 MOL      0.563441
    115 O17        -3.9550   -4.7900   -1.3010 o         1 MOL     -0.562635
    116 C37        -2.3810   -4.5220    1.3780 c3        1 MOL      0.511801
    117 C38        -1.1880   -3.9180    2.1850 c3        1 MOL     -0.292042
    118 O18        -3.3890   -4.9160    2.2990 oh        1 MOL     -0.643311
    119 H53        -1.3950   -3.8000   -0.8690 hn        1 MOL      0.203279
    120 H54        -3.3150   -2.6030    1.0050 h1        1 MOL      0.133397
    121 H55        -1.9540   -5.4220    0.9430 h1        1 MOL     -0.036006
    122 H56        -3.7600   -5.7620    2.0200 ho        1 MOL      0.374551
    123 H57        -0.3300   -3.7310    1.5360 hc        1 MOL      0.064126
    124 H58        -1.5210   -3.0130    2.6980 hc        1 MOL      0.064126
    125 H59        -0.8610   -4.6650    2.9020 hc        1 MOL      0.064126
    126 N11        -5.3720   -3.8190    0.1080 n         1 MOL     -0.445163
    127 C39        -6.5940   -4.1870   -0.5910 c3        1 MOL     -0.014374
    128 C40        -7.6470   -3.0910   -0.6450 c         1 MOL      0.759165
    129 O19        -8.1910   -2.8770   -1.6780 o         1 MOL     -0.597231
    130 C41        -7.0610   -5.5820    0.0040 c3        1 MOL      0.255085
    131 C42        -8.2060   -6.2270   -0.7980 c3        1 MOL     -0.360118
    132 O20        -7.5040   -5.4770    1.3250 oh        1 MOL     -0.622346
    133 H60        -5.3870   -3.2290    0.9260 hn        1 MOL      0.259034
    134 H61        -6.2960   -4.3590   -1.6220 h1        1 MOL      0.118641
    135 H62        -6.1510   -6.1760   -0.0140 h1        1 MOL      0.031937
    136 H63        -7.4940   -6.3840    1.6380 ho        1 MOL      0.412622
    137 H64        -8.3450   -7.2350   -0.3930 hc        1 MOL      0.094850
    138 H65        -9.0570   -5.6120   -0.5020 hc        1 MOL      0.094850
    139 H66        -8.0560   -6.2230   -1.8730 hc        1 MOL      0.094850
    140 N12        -7.9260   -2.2510    0.3880 n         1 MOL     -0.713783
    141 C43        -8.9560   -1.1840    0.3810 c3        1 MOL      0.280432
    142 C44        -8.4290    0.0460    1.1700 c         1 MOL      0.455075
    143 O21        -7.5810   -0.0620    2.0600 o         1 MOL     -0.474637
    144 C45       -10.2300   -1.7620    1.0510 c3        1 MOL     -0.291192
    145 C46       -11.4530   -0.9370    0.6700 c3        1 MOL      0.030556
    146 C47       -12.8170   -1.5590    1.1220 c3        1 MOL      0.054502
    147 C48       -13.9870   -0.9140    0.3910 c3        1 MOL     -0.127969
    148 N13       -15.2840   -1.4950    0.9170 n4        1 MOL     -0.062324
    149 H67        -7.3700   -2.4340    1.2000 hn        1 MOL      0.330802
    150 H68        -9.1130   -0.9410   -0.6710 h1        1 MOL      0.096640
    151 H69       -10.1690   -1.8880    2.1380 hc        1 MOL      0.108239
    152 H70       -10.3610   -2.7330    0.5860 hc        1 MOL      0.108239
    153 H71       -11.4130   -0.8470   -0.4090 hc        1 MOL      0.015559
    154 H72       -11.4040    0.0120    1.1960 hc        1 MOL      0.015559
    155 H73       -12.7960   -1.3640    2.1860 hc        1 MOL      0.015437
    156 H74       -12.7490   -2.6340    0.9290 hc        1 MOL      0.015437
    157 H75       -13.9450   -1.1280   -0.6720 hx        1 MOL      0.113737
    158 H76       -14.0000    0.1320    0.7230 hx        1 MOL      0.113737
    159 H77       -15.2800   -2.4880    1.0730 hn        1 MOL      0.179018
    160 H78       -15.5240   -1.0760    1.8140 hn        1 MOL      0.179018
    161 H79       -16.0310   -1.3690    0.2410 hn        1 MOL      0.179018
    162 N14        -8.8100    1.2310    0.6410 n         1 MOL     -0.417464
    163 C49        -8.3880    2.5220    1.1970 c3        1 MOL      0.226914
    164 C50        -6.8620    2.6300    1.5560 c         1 MOL      0.325466
    165 O22        -6.6540    2.7980    2.7570 o         1 MOL     -0.509205
    166 C51        -8.9930    3.6310    0.2860 c3        1 MOL     -0.053994
    167 C52        -9.0970    5.0550    0.9380 c3        1 MOL     -0.149857
    168 C53        -9.6080    6.1500    0.0270 c         1 MOL      0.693575
    169 O23       -10.8100    6.4490   -0.0620 o         1 MOL     -0.629970
    170 O24        -8.7280    6.8440   -0.6270 o         1 MOL     -0.629970
    171 H80        -9.3810    1.2550   -0.1910 hn        1 MOL      0.183705
    172 H81        -8.9240    2.5820    2.1450 h1        1 MOL      0.039059
    173 H82       -10.0170    3.3180    0.0760 hc        1 MOL      0.016366
    174 H83        -8.5000    3.8180   -0.6700 hc        1 MOL      0.016366
    175 H84        -8.1320    5.3500    1.3520 hc        1 MOL      0.028406
    176 H85        -9.7260    5.0520    1.8350 hc        1 MOL      0.028406
    177 N15        -5.9150    2.4810    0.6200 n         1 MOL     -0.265247
    178 C54        -6.1130    2.2880   -0.8470 c3        1 MOL     -0.062147
    179 H86        -5.1420    2.2080   -1.3370 h1        1 MOL      0.068254
    180 H87        -6.6820    1.3750   -1.0210 h1        1 MOL      0.068254
    181 H88        -6.6570    3.1390   -1.2560 h1        1 MOL      0.068254
    182 H89        -4.9700    2.5610    0.9520 hn        1 MOL      0.280709
    183 Ca1         5.4680   -2.8740    2.2910 Ca        1 MOL      1.711540
    184 O25         6.9760   -1.9620    4.2900 oh        1 MOL     -0.834896
    185 H90         7.0120   -1.7250    5.2220 ho        1 MOL      0.413079
    186 H91         7.8630   -1.8050    3.9670 ho        1 MOL      0.413079
    187 O26         4.1390   -3.5870    4.4880 oh        1 MOL     -0.834896
    188 H92         3.3900   -4.1840    4.5240 ho        1 MOL      0.413079
    189 H93         4.0180   -3.0090    5.2430 ho        1 MOL      0.413079
    190 O27         2.9370   -2.8780    1.4920 oh        1 MOL     -0.834896
    191 H94         2.6450   -2.2430    0.8440 ho        1 MOL      0.413079
    192 H95         2.4560   -3.6810    1.2840 ho        1 MOL      0.413079
    193 O28         6.8980   -4.9000    3.3270 oh        1 MOL     -0.834896
    194 H96         6.6320   -5.7760    3.5860 ho        1 MOL      0.413079
    195 H97         7.8390   -4.8850    3.4730 ho        1 MOL      0.413079
    196 O29         4.4570   -5.4480    1.7230 oh        1 MOL     -0.834896
    197 H98         3.5090   -5.5080    1.7980 ho        1 MOL      0.413079
    198 H99         4.7740   -6.3510    1.8050 ho        1 MOL      0.413079
@<TRIPOS>BOND
     1    1    2 1   
     2    1    4 1   
     3    1    5 1   
     4    1    6 1   
     5    2    3 2   
     6    2    7 1   
     7    7    8 1   
     8    7   15 1   
     9    8    9 1   
    10    8   11 1   
    11    8   16 1   
    12    9   10 2   
    13    9   19 1   
    14   11   12 1   
    15   11   17 1   
    16   11   18 1   
    17   12   13 1   
    18   12   14 1   
    19   19   20 1   
    20   19   28 1   
    21   20   21 1   
    22   20   23 1   
    23   20   29 1   
    24   21   22 2   
    25   21   41 1   
    26   23   24 1   
    27   23   30 1   
    28   23   31 1   
    29   24   25 1   
    30   24   32 1   
    31   24   33 1   
    32   25   26 1   
    33   25   34 1   
    34   25   35 1   
    35   26   27 1   
    36   26   36 1   
    37   26   37 1   
    38   27   38 1   
    39   27   39 1   
    40   27   40 1   
    41   41   42 1   
    42   41   49 1   
    43   42   43 1   
    44   42   45 1   
    45   42   50 1   
    46   43   44 2   
    47   43   53 1   
    48   45   46 1   
    49   45   51 1   
    50   45   52 1   
    51   46   47 1   
    52   46   48 1   
    53   53   54 1   
    54   53   57 1   
    55   54   55 1   
    56   54   58 1   
    57   54   59 1   
    58   55   56 2   
    59   55   60 1   
    60   60   61 1   
    61   60   68 1   
    62   61   62 1   
    63   61   64 1   
    64   61   69 1   
    65   62   63 2   
    66   62   72 1   
    67   64   65 1   
    68   64   70 1   
    69   64   71 1   
    70   65   66 1   
    71   65   67 1   
    72   72   73 1   
    73   72   76 1   
    74   73   74 1   
    75   73   77 1   
    76   73   78 1   
    77   74   75 2   
    78   74   79 1   
    79   79   80 1   
    80   79   86 1   
    81   80   81 1   
    82   80   83 1   
    83   80   87 1   
    84   81   82 2   
    85   81   93 1   
    86   83   84 1   
    87   83   85 1   
    88   83   88 1   
    89   84   90 1   
    90   84   91 1   
    91   84   92 1   
    92   85   89 1   
    93   93   94 1   
    94   93  101 1   
    95   94   95 1   
    96   94   97 1   
    97   94  102 1   
    98   95   96 2   
    99   95  112 1   
   100   97   98 1   
   101   97   99 1   
   102   97  103 1   
   103   98  100 1   
   104   98  104 1   
   105   98  105 1   
   106   99  106 1   
   107   99  107 1   
   108   99  108 1   
   109  100  109 1   
   110  100  110 1   
   111  100  111 1   
   112  112  113 1   
   113  112  119 1   
   114  113  114 1   
   115  113  116 1   
   116  113  120 1   
   117  114  115 2   
   118  114  126 1   
   119  116  117 1   
   120  116  118 1   
   121  116  121 1   
   122  117  123 1   
   123  117  124 1   
   124  117  125 1   
   125  118  122 1   
   126  126  127 1   
   127  126  133 1   
   128  127  128 1   
   129  127  130 1   
   130  127  134 1   
   131  128  129 2   
   132  128  140 1   
   133  130  131 1   
   134  130  132 1   
   135  130  135 1   
   136  131  137 1   
   137  131  138 1   
   138  131  139 1   
   139  132  136 1   
   140  140  141 1   
   141  140  149 1   
   142  141  142 1   
   143  141  144 1   
   144  141  150 1   
   145  142  143 2   
   146  142  162 1   
   147  144  145 1   
   148  144  151 1   
   149  144  152 1   
   150  145  146 1   
   151  145  153 1   
   152  145  154 1   
   153  146  147 1   
   154  146  155 1   
   155  146  156 1   
   156  147  148 1   
   157  147  157 1   
   158  147  158 1   
   159  148  159 1   
   160  148  160 1   
   161  148  161 1   
   162  162  163 1   
   163  162  171 1   
   164  163  164 1   
   165  163  166 1   
   166  163  172 1   
   167  164  165 2   
   168  164  177 1   
   169  166  167 1   
   170  166  173 1   
   171  166  174 1   
   172  167  168 1   
   173  167  175 1   
   174  167  176 1   
   175  168  169 1   
   176  168  170 1   
   177  177  178 1   
   178  177  182 1   
   179  178  179 1   
   180  178  180 1   
   181  178  181 1   
   182  184  185 1   
   183  184  186 1   
   184  187  188 1   
   185  187  189 1   
   186  190  191 1   
   187  190  192 1   
   188  193  194 1   
   189  193  195 1   
   190  196  197 1   
   191  196  198 1   
@<TRIPOS>SUBSTRUCTURE
     1 MOL         1 TEMP              0 ****  ****    0 ROOT
