@<TRIPOS>MOLECULE
MOL
  192   187     1     0     0
SMALL
resp


@<TRIPOS>ATOM
      1 C1         -6.2780   -2.8330    4.7030 c3        1 MOL     -0.152485
      2 C2         -5.6720   -2.2370    3.4100 c         1 MOL      0.689113
      3 O1         -5.1820   -2.8920    2.4860 o         1 MOL     -0.588220
      4 H1         -6.7310   -2.0350    5.2930 hc        1 MOL      0.039476
      5 H2         -7.0400   -3.5690    4.4430 hc        1 MOL      0.039476
      6 H3         -5.4930   -3.3140    5.2860 hc        1 MOL      0.039476
      7 N1         -5.6630   -0.8710    3.3250 n         1 MOL     -0.415110
      8 C3         -5.3170   -0.1270    2.0840 c3        1 MOL      0.089724
      9 C4         -3.7940   -0.0030    1.7960 c         1 MOL     -0.012563
     10 O2         -3.4890    0.4550    0.6710 o         1 MOL     -0.280714
     11 C5         -5.8880    1.3100    2.1580 c3        1 MOL     -0.065663
     12 C6         -7.3210    1.4460    2.7640 c         1 MOL      0.649466
     13 O3         -7.5850    1.1770    3.9040 o         1 MOL     -0.670123
     14 O4         -8.0920    2.1890    2.1210 o         1 MOL     -0.670123
     15 H4         -6.0560   -0.3520    4.0930 hn        1 MOL      0.224074
     16 H5         -5.8430   -0.6290    1.2690 h1        1 MOL      0.081349
     17 H6         -5.8500    1.8060    1.1890 hc        1 MOL     -0.004761
     18 H7         -5.2780    1.9250    2.8260 hc        1 MOL     -0.004761
     19 N2         -2.9950   -0.4550    2.7430 n         1 MOL      0.037622
     20 C7         -1.5450   -0.5070    2.7360 c3        1 MOL     -0.018360
     21 C8         -0.9870   -1.9090    2.2250 c         1 MOL      0.264280
     22 O5         -1.5650   -3.0020    2.4850 o         1 MOL     -0.476966
     23 C9         -1.1250   -0.1020    4.1700 c3        1 MOL      0.021960
     24 C10        -1.5410    1.3340    4.4690 c3        1 MOL      0.011882
     25 C11        -1.0000    1.7380    5.8900 c3        1 MOL     -0.044595
     26 C12        -1.4290    3.1750    6.2000 c3        1 MOL      0.111244
     27 N3         -0.7100    3.7480    7.3040 n4        1 MOL     -0.370576
     28 H8         -3.4470   -0.9020    3.5420 hn        1 MOL      0.137015
     29 H9         -1.1210    0.2640    2.0870 h1        1 MOL      0.123358
     30 H10        -0.0420   -0.1070    4.3410 hc        1 MOL      0.011278
     31 H11        -1.4880   -0.7440    4.9800 hc        1 MOL      0.011278
     32 H12        -2.6320    1.4310    4.5120 hc        1 MOL      0.009202
     33 H13        -1.1160    1.9430    3.6730 hc        1 MOL      0.009202
     34 H14         0.0930    1.6710    5.8760 hc        1 MOL      0.037179
     35 H15        -1.3890    1.0990    6.6840 hc        1 MOL      0.037179
     36 H16        -2.5100    3.2920    6.3490 hx        1 MOL      0.066106
     37 H17        -1.1200    3.7800    5.3500 hx        1 MOL      0.066106
     38 H18        -1.2560    4.5330    7.6460 hn        1 MOL      0.316395
     39 H19        -0.5710    3.0490    8.0240 hn        1 MOL      0.316395
     40 H20         0.2020    4.0660    7.0240 hn        1 MOL      0.316395
     41 N4          0.0180   -1.9740    1.3650 n         1 MOL     -0.018033
     42 C13         0.8470   -0.9340    0.7440 c3        1 MOL     -0.241248
     43 C14         1.4280    0.2040    1.5800 c         1 MOL      0.563504
     44 O6          0.8510    1.2450    1.6760 o         1 MOL     -0.571676
     45 C15         0.2580   -0.4330   -0.5720 c3        1 MOL     -0.247972
     46 C16         0.0680   -1.5570   -1.5270 c         1 MOL      0.819082
     47 O7          0.6400   -2.6610   -1.3950 o         1 MOL     -0.786895
     48 O8         -0.5350   -1.3540   -2.5990 o         1 MOL     -0.786895
     49 H21         0.2030   -2.9250    1.0990 hn        1 MOL      0.092154
     50 H22         1.7620   -1.4470    0.4510 h1        1 MOL     -0.017764
     51 H23         1.0070    0.2250   -0.9950 hc        1 MOL      0.198744
     52 H24        -0.6990    0.0660   -0.4630 hc        1 MOL      0.198744
     53 N5          2.4710    0.0370    2.3330 n         1 MOL     -0.304407
     54 C17         3.4610   -1.0470    2.2500 c3        1 MOL     -0.187194
     55 C18         4.3820   -1.1230    3.4440 c         1 MOL      0.567003
     56 O9          4.2890   -0.2790    4.3400 o         1 MOL     -0.542044
     57 H25         2.5990    0.8140    2.9690 hn        1 MOL      0.269958
     58 H26         3.9820   -0.8870    1.3160 h1        1 MOL      0.151088
     59 H27         2.9820   -2.0210    2.1110 h1        1 MOL      0.151088
     60 N6          5.2070   -2.1520    3.5610 n         1 MOL     -0.429546
     61 C19         5.6310   -3.2090    2.6000 c3        1 MOL      0.126633
     62 C20         6.3790   -2.7240    1.3760 c         1 MOL      0.435954
     63 O10         7.1510   -1.7000    1.4460 o         1 MOL     -0.417094
     64 C21         6.3800   -4.3300    3.3480 c3        1 MOL     -0.053104
     65 C22         7.6120   -3.7770    4.1150 c         1 MOL      0.611875
     66 O11         8.7610   -4.1690    3.8480 o         1 MOL     -0.609887
     67 O12         7.5000   -2.8390    4.9860 o         1 MOL     -0.609887
     68 H28         5.8050   -2.0880    4.3830 hn        1 MOL      0.237718
     69 H29         4.7010   -3.6310    2.2240 h1        1 MOL     -0.055031
     70 H30         6.7700   -5.0200    2.6040 hc        1 MOL     -0.009017
     71 H31         5.7430   -4.8780    4.0410 hc        1 MOL     -0.009017
     72 N7          6.3240   -3.4720    0.2550 n         1 MOL     -0.212254
     73 C23         7.2370   -3.0590   -0.8170 c3        1 MOL     -0.194648
     74 C24         6.9930   -1.7560   -1.5210 c         1 MOL      0.483904
     75 O13         7.8870   -1.3590   -2.3370 o         1 MOL     -0.556616
     76 H32         5.6530   -4.2130    0.0860 hn        1 MOL      0.198454
     77 H33         7.0540   -3.8650   -1.5220 h1        1 MOL      0.117257
     78 H34         8.2920   -3.1820   -0.5510 h1        1 MOL      0.117257
     79 N8          5.9020   -1.1100   -1.2660 n         1 MOL     -0.238799
     80 C25         5.4100    0.1180   -1.9290 c3        1 MOL      0.042969
     81 C26         5.1830    1.2700   -0.9530 c         1 MOL      0.663610
     82 O14         4.8840    0.9960    0.1510 o         1 MOL     -0.549584
     83 C27         4.2120   -0.1640   -2.8870 c3        1 MOL      0.566718
     84 C28         4.4510   -1.1790   -3.8770 c3        1 MOL     -0.159487
     85 O15         3.8360    0.9590   -3.5350 oh        1 MOL     -0.715525
     86 H35         5.3380   -1.5200   -0.5340 hn        1 MOL      0.013204
     87 H36         6.2200    0.4500   -2.5820 h1        1 MOL      0.061709
     88 H37         3.3130   -0.3750   -2.3300 h1        1 MOL     -0.090002
     89 H38         2.9450    0.8160   -3.8710 ho        1 MOL      0.436910
     90 H39         5.4430   -0.8800   -4.2340 hc        1 MOL      0.017124
     91 H40         4.5310   -2.1670   -3.4190 hc        1 MOL      0.017124
     92 H41         3.7220   -1.2340   -4.6800 hc        1 MOL      0.017124
     93 N9          5.3660    2.5140   -1.3850 n         1 MOL     -0.561331
     94 C29         5.3460    3.7130   -0.5290 c3        1 MOL     -0.045181
     95 C30         4.0090    4.5180   -0.5100 c         1 MOL      0.352089
     96 O16         3.9830    5.5020    0.2090 o         1 MOL     -0.509069
     97 C31         6.5200    4.7020   -0.7590 c3        1 MOL      0.238680
     98 C32         6.4650    5.4590   -2.0980 c3        1 MOL      0.034176
     99 C33         7.8160    4.0000   -0.4670 c3        1 MOL      0.047716
    100 C34         7.5130    6.5320   -2.3670 c3        1 MOL     -0.004106
    101 H42         5.7930    2.5930   -2.2990 hn        1 MOL      0.309487
    102 H43         5.3840    3.3360    0.4900 h1        1 MOL      0.138454
    103 H44         6.4760    5.3880    0.0970 hc        1 MOL     -0.031852
    104 H45         5.5200    5.9910   -2.1980 hc        1 MOL     -0.023135
    105 H46         6.4700    4.6680   -2.8450 hc        1 MOL     -0.023135
    106 H47         7.8230    3.5750    0.5320 hc        1 MOL     -0.025354
    107 H48         7.9520    3.1970   -1.1950 hc        1 MOL     -0.025354
    108 H49         8.7090    4.6290   -0.5290 hc        1 MOL     -0.025354
    109 H50         8.3510    5.9450   -2.7390 hc        1 MOL     -0.006950
    110 H51         7.2090    7.2510   -3.1360 hc        1 MOL     -0.006950
    111 H52         7.8810    6.9900   -1.4550 hc        1 MOL     -0.006950
    112 N10         2.9700    3.9560   -1.0800 n         1 MOL     -0.150009
    113 C35         1.6690    4.6200   -1.2310 c3        1 MOL     -0.053551
    114 C36         0.4600    3.6760   -1.1850 c         1 MOL      0.599647
    115 O17         0.5450    2.5050   -1.6050 o         1 MOL     -0.528902
    116 C37         1.7130    5.5280   -2.4910 c3        1 MOL      0.305412
    117 C38         1.9830    4.7040   -3.7870 c3        1 MOL     -0.205231
    118 O18         2.6690    6.5970   -2.5410 oh        1 MOL     -0.633755
    119 H53         2.9560    3.0240   -1.4680 hn        1 MOL      0.148566
    120 H54         1.5410    5.2530   -0.3600 h1        1 MOL      0.092254
    121 H55         0.7320    6.0120   -2.5520 h1        1 MOL     -0.002835
    122 H56         2.6580    7.0820   -3.3760 ho        1 MOL      0.413965
    123 H57         1.0670    4.1330   -3.9390 hc        1 MOL      0.048106
    124 H58         1.9920    5.4080   -4.6160 hc        1 MOL      0.048106
    125 H59         2.9150    4.1330   -3.8060 hc        1 MOL      0.048106
    126 N11        -0.6980    4.0960   -0.6870 n         1 MOL     -0.562139
    127 C39        -1.8310    3.1840   -0.5260 c3        1 MOL      0.103402
    128 C40        -2.5010    2.7990   -1.8030 c         1 MOL      0.455589
    129 O19        -2.2950    3.4070   -2.8750 o         1 MOL     -0.543510
    130 C41        -2.9720    3.7000    0.4220 c3        1 MOL      0.454450
    131 C42        -3.7260    4.8230   -0.3040 c3        1 MOL     -0.302177
    132 O20        -2.4210    4.2370    1.5470 oh        1 MOL     -0.622032
    133 H60        -0.8310    5.0510   -0.3730 hn        1 MOL      0.320141
    134 H61        -1.5600    2.2560   -0.0310 h1        1 MOL      0.067430
    135 H62        -3.6660    2.9170    0.7380 h1        1 MOL      0.053943
    136 H63        -3.0910    4.1810    2.2270 ho        1 MOL      0.340336
    137 H64        -4.1210    4.4380   -1.2410 hc        1 MOL      0.056570
    138 H65        -4.5710    5.2050    0.2650 hc        1 MOL      0.056570
    139 H66        -3.0960    5.6860   -0.5330 hc        1 MOL      0.056570
    140 N12        -3.3340    1.7550   -1.7840 n         1 MOL     -0.014199
    141 C43        -4.1610    1.2250   -2.8760 c3        1 MOL      0.003370
    142 C44        -4.3720   -0.3020   -2.9440 c         1 MOL      0.619180
    143 O21        -4.9940   -0.8260   -3.8700 o         1 MOL     -0.639316
    144 C45        -5.5070    1.9550   -2.9070 c3        1 MOL     -0.383432
    145 C46        -6.3330    1.4830   -1.7430 c3        1 MOL     -0.169035
    146 C47        -7.6460    2.2730   -1.6660 c3        1 MOL      0.034948
    147 C48        -7.5110    3.8290   -1.4810 c3        1 MOL      0.147012
    148 N13        -8.7980    4.6220   -1.3800 n4        1 MOL     -0.441888
    149 H67        -3.4090    1.2280   -0.9170 hn        1 MOL     -0.339611
    150 H68        -3.6670    1.4690   -3.8170 h1        1 MOL      0.078625
    151 H69        -6.0730    1.7750   -3.8190 hc        1 MOL      0.141048
    152 H70        -5.2150    2.9920   -2.7630 hc        1 MOL      0.141048
    153 H71        -5.7190    1.5590   -0.8440 hc        1 MOL      0.173228
    154 H72        -6.7280    0.4970   -2.0090 hc        1 MOL      0.173228
    155 H73        -8.0190    1.7940   -0.7580 hc        1 MOL      0.002082
    156 H74        -8.3790    2.1730   -2.4650 hc        1 MOL      0.002082
    157 H75        -6.9980    4.2190   -2.3700 hx        1 MOL      0.015695
    158 H76        -6.9470    4.0660   -0.5800 hx        1 MOL      0.015695
    159 H77        -9.3160    4.2860   -0.5730 hn        1 MOL      0.342842
    160 H78        -8.5920    5.5840   -1.1970 hn        1 MOL      0.342842
    161 H79        -9.2650    4.6410   -2.2800 hn        1 MOL      0.342842
    162 N14        -4.0150   -1.0340   -1.9030 n         1 MOL     -0.244254
    163 C49        -4.1160   -2.4840   -1.6910 c3        1 MOL     -0.040573
    164 C50        -5.5760   -2.9070   -1.6940 c         1 MOL      0.336487
    165 O22        -6.3320   -2.3640   -0.9110 o         1 MOL     -0.514958
    166 C51        -3.4290   -3.0470   -0.4460 c3        1 MOL      0.761910
    167 C52        -3.4840   -4.5680   -0.3630 c3        1 MOL     -1.166051
    168 C53        -2.9400   -5.2390   -1.5910 c         1 MOL      1.025528
    169 O23        -1.7330   -5.5590   -1.6270 o         1 MOL     -0.816478
    170 O24        -3.6440   -5.5810   -2.5670 o         1 MOL     -0.816478
    171 H80        -3.7180   -0.5350   -1.0800 hn        1 MOL      0.189959
    172 H81        -3.6920   -2.8590   -2.6160 h1        1 MOL      0.047573
    173 H82        -3.7400   -2.5510    0.4730 hc        1 MOL     -0.142061
    174 H83        -2.3730   -2.7880   -0.4420 hc        1 MOL     -0.142061
    175 H84        -4.5340   -4.8480   -0.2940 hc        1 MOL      0.310318
    176 H85        -2.9610   -4.9660    0.5060 hc        1 MOL      0.310318
    177 N15        -6.0500   -3.7060   -2.6750 n         1 MOL     -0.102213
    178 C54        -7.4010   -4.2180   -2.6610 c3        1 MOL     -0.355522
    179 H86        -7.3820   -5.2940   -2.8310 h1        1 MOL      0.124721
    180 H87        -7.8590   -4.0130   -1.6940 h1        1 MOL      0.124721
    181 H88        -7.9810   -3.7370   -3.4480 h1        1 MOL      0.124721
    182 H89        -5.4350   -4.0340   -3.4140 hn        1 MOL      0.286014
    183 Ca1         0.7780   -5.1770   -1.9640 Ca        1 MOL      1.674249
    184 O25         2.2230   -4.6800   -4.2170 oh        1 MOL     -0.888612
    185 H90         1.8680   -5.4130   -4.7200 ho        1 MOL      0.444380
    186 H91         2.2920   -3.9620   -4.8490 ho        1 MOL      0.444380
    187 O26         0.9680   -7.3320   -3.8050 oh        1 MOL     -0.888612
    188 H92         1.5580   -7.9920   -4.1740 ho        1 MOL      0.444380
    189 H93         0.1060   -7.7500   -3.8240 ho        1 MOL      0.444380
    190 O27        -0.8450   -3.8770   -3.8840 oh        1 MOL     -0.888612
    191 H94        -1.7680   -3.9260   -4.1500 ho        1 MOL      0.444380
    192 H95        -0.7280   -2.9770   -3.5980 ho        1 MOL      0.444380
@<TRIPOS>BOND
     1    1    2 1   
     2    1    4 1   
     3    1    5 1   
     4    1    6 1   
     5    2    3 2   
     6    2    7 1   
     7    7    8 1   
     8    7   15 1   
     9    8    9 1   
    10    8   11 1   
    11    8   16 1   
    12    9   10 2   
    13    9   19 1   
    14   11   12 1   
    15   11   17 1   
    16   11   18 1   
    17   12   13 1   
    18   12   14 1   
    19   19   20 1   
    20   19   28 1   
    21   20   21 1   
    22   20   23 1   
    23   20   29 1   
    24   21   22 2   
    25   21   41 1   
    26   23   24 1   
    27   23   30 1   
    28   23   31 1   
    29   24   25 1   
    30   24   32 1   
    31   24   33 1   
    32   25   26 1   
    33   25   34 1   
    34   25   35 1   
    35   26   27 1   
    36   26   36 1   
    37   26   37 1   
    38   27   38 1   
    39   27   39 1   
    40   27   40 1   
    41   41   42 1   
    42   41   49 1   
    43   42   43 1   
    44   42   45 1   
    45   42   50 1   
    46   43   44 2   
    47   43   53 1   
    48   45   46 1   
    49   45   51 1   
    50   45   52 1   
    51   46   47 1   
    52   46   48 1   
    53   53   54 1   
    54   53   57 1   
    55   54   55 1   
    56   54   58 1   
    57   54   59 1   
    58   55   56 2   
    59   55   60 1   
    60   60   61 1   
    61   60   68 1   
    62   61   62 1   
    63   61   64 1   
    64   61   69 1   
    65   62   63 2   
    66   62   72 1   
    67   64   65 1   
    68   64   70 1   
    69   64   71 1   
    70   65   66 1   
    71   65   67 1   
    72   72   73 1   
    73   72   76 1   
    74   73   74 1   
    75   73   77 1   
    76   73   78 1   
    77   74   75 2   
    78   74   79 1   
    79   79   80 1   
    80   79   86 1   
    81   80   81 1   
    82   80   83 1   
    83   80   87 1   
    84   81   82 2   
    85   81   93 1   
    86   83   84 1   
    87   83   85 1   
    88   83   88 1   
    89   84   90 1   
    90   84   91 1   
    91   84   92 1   
    92   85   89 1   
    93   93   94 1   
    94   93  101 1   
    95   94   95 1   
    96   94   97 1   
    97   94  102 1   
    98   95   96 2   
    99   95  112 1   
   100   97   98 1   
   101   97   99 1   
   102   97  103 1   
   103   98  100 1   
   104   98  104 1   
   105   98  105 1   
   106   99  106 1   
   107   99  107 1   
   108   99  108 1   
   109  100  109 1   
   110  100  110 1   
   111  100  111 1   
   112  112  113 1   
   113  112  119 1   
   114  113  114 1   
   115  113  116 1   
   116  113  120 1   
   117  114  115 2   
   118  114  126 1   
   119  116  117 1   
   120  116  118 1   
   121  116  121 1   
   122  117  123 1   
   123  117  124 1   
   124  117  125 1   
   125  118  122 1   
   126  126  127 1   
   127  126  133 1   
   128  127  128 1   
   129  127  130 1   
   130  127  134 1   
   131  128  129 2   
   132  128  140 1   
   133  130  131 1   
   134  130  132 1   
   135  130  135 1   
   136  131  137 1   
   137  131  138 1   
   138  131  139 1   
   139  132  136 1   
   140  140  141 1   
   141  140  149 1   
   142  141  142 1   
   143  141  144 1   
   144  141  150 1   
   145  142  143 2   
   146  142  162 1   
   147  144  145 1   
   148  144  151 1   
   149  144  152 1   
   150  145  146 1   
   151  145  153 1   
   152  145  154 1   
   153  146  147 1   
   154  146  155 1   
   155  146  156 1   
   156  147  148 1   
   157  147  157 1   
   158  147  158 1   
   159  148  159 1   
   160  148  160 1   
   161  148  161 1   
   162  162  163 1   
   163  162  171 1   
   164  163  164 1   
   165  163  166 1   
   166  163  172 1   
   167  164  165 2   
   168  164  177 1   
   169  166  167 1   
   170  166  173 1   
   171  166  174 1   
   172  167  168 1   
   173  167  175 1   
   174  167  176 1   
   175  168  169 1   
   176  168  170 1   
   177  177  178 1   
   178  177  182 1   
   179  178  179 1   
   180  178  180 1   
   181  178  181 1   
   182  184  185 1   
   183  184  186 1   
   184  187  188 1   
   185  187  189 1   
   186  190  191 1   
   187  190  192 1   
@<TRIPOS>SUBSTRUCTURE
     1 MOL         1 TEMP              0 ****  ****    0 ROOT
