@<TRIPOS>MOLECULE
MOL
  179   176     1     0     0
SMALL
resp


@<TRIPOS>ATOM
      1 C1         -2.6430   -1.2110    6.4830 c3        1 MOL     -0.325427
      2 C2         -2.4260   -1.2260    4.9590 c         1 MOL      0.795627
      3 O1         -3.1660   -0.6730    4.1580 o         1 MOL     -0.615839
      4 H1         -1.9520   -0.5040    6.9410 hc        1 MOL      0.084961
      5 H2         -3.6680   -0.9100    6.7020 hc        1 MOL      0.084961
      6 H3         -2.4630   -2.2080    6.8860 hc        1 MOL      0.084961
      7 N1         -1.2690   -1.8120    4.5920 n         1 MOL     -0.738693
      8 C3         -0.8160   -1.9300    3.1470 c3        1 MOL      0.137189
      9 C4         -1.7820   -2.9150    2.4150 c         1 MOL      0.601571
     10 O2         -1.9110   -4.0530    2.8010 o         1 MOL     -0.571953
     11 C5          0.6800   -2.3510    3.1190 c3        1 MOL      0.179346
     12 C6          1.2420   -2.0790    1.6970 c         1 MOL      0.557151
     13 O3          2.4440   -1.7930    1.5690 o         1 MOL     -0.730790
     14 O4          0.4220   -1.8890    0.7500 o         1 MOL     -0.730790
     15 H4         -0.6060   -1.9810    5.3310 hn        1 MOL      0.341632
     16 H5         -0.9660   -0.9430    2.7230 h1        1 MOL      0.000777
     17 H6          0.8720   -3.3360    3.5610 hc        1 MOL     -0.036379
     18 H7          1.1630   -1.6500    3.8040 hc        1 MOL     -0.036379
     19 N2         -2.4230   -2.5440    1.3000 n         1 MOL     -0.321808
     20 C7         -3.3250   -3.3490    0.5060 c3        1 MOL     -0.052656
     21 C8         -2.6870   -4.2020   -0.6020 c         1 MOL      0.436950
     22 O5         -3.2550   -5.1460   -1.2300 o         1 MOL     -0.550521
     23 C9         -4.4430   -2.3780    0.0010 c3        1 MOL      0.101050
     24 C10        -5.7250   -3.0680   -0.2670 c3        1 MOL     -0.324387
     25 C11        -6.7470   -2.0220   -0.6720 c3        1 MOL      0.252534
     26 C12        -8.1140   -2.7550   -0.9910 c3        1 MOL     -0.099771
     27 N3         -8.8430   -2.0850   -2.0160 n4        1 MOL     -0.316700
     28 H8         -2.2320   -1.6030    0.9860 hn        1 MOL      0.267899
     29 H9         -3.9060   -4.1210    1.0270 h1        1 MOL      0.101254
     30 H10        -4.0520   -1.6960   -0.7500 hc        1 MOL      0.026225
     31 H11        -4.6170   -1.6840    0.8140 hc        1 MOL      0.026225
     32 H12        -6.0880   -3.5380    0.6490 hc        1 MOL      0.072615
     33 H13        -5.5030   -3.8790   -0.9540 hc        1 MOL      0.072615
     34 H14        -6.3790   -1.5890   -1.5950 hc        1 MOL     -0.017365
     35 H15        -6.9270   -1.2090    0.0340 hc        1 MOL     -0.017365
     36 H16        -8.6620   -2.8220   -0.0570 hx        1 MOL      0.106635
     37 H17        -7.8860   -3.7870   -1.2680 hx        1 MOL      0.106635
     38 H18        -8.3490   -2.0320   -2.9040 hn        1 MOL      0.298455
     39 H19        -9.7540   -2.4880   -2.1620 hn        1 MOL      0.298455
     40 H20        -9.0040   -1.1590   -1.6580 hn        1 MOL      0.298455
     41 N4         -1.4600   -3.8220   -0.8430 n         1 MOL     -0.190979
     42 C13        -0.6220   -4.4910   -1.8080 c3        1 MOL     -0.078565
     43 C14         0.7260   -5.0150   -1.1820 c         1 MOL      0.529575
     44 O6          1.3700   -5.7900   -1.8610 o         1 MOL     -0.562570
     45 C15        -0.3260   -3.4890   -2.9540 c3        1 MOL     -0.197872
     46 C16         0.4620   -2.2100   -2.6080 c         1 MOL      0.779923
     47 O7          1.5750   -2.3620   -2.0070 o         1 MOL     -0.773096
     48 O8          0.0420   -1.0410   -2.8200 o         1 MOL     -0.773096
     49 H21        -1.1660   -3.0400   -0.2800 hn        1 MOL      0.179757
     50 H22        -1.1410   -5.3560   -2.2230 h1        1 MOL      0.136678
     51 H23        -1.2890   -3.1870   -3.3500 hc        1 MOL      0.067535
     52 H24         0.1860   -3.8820   -3.8320 hc        1 MOL      0.067535
     53 N5          1.1070   -4.6210    0.0230 n         1 MOL     -0.220386
     54 C17         2.2450   -5.1850    0.8260 c3        1 MOL     -0.188065
     55 C18         3.6390   -4.7980    0.3870 c         1 MOL      0.478404
     56 O9          4.5310   -5.3900    1.0270 o         1 MOL     -0.564212
     57 H25         0.7240   -3.7490    0.3500 hn        1 MOL      0.047572
     58 H26         2.1810   -6.2600    1.0010 h1        1 MOL      0.135270
     59 H27         2.1420   -4.7410    1.8120 h1        1 MOL      0.135270
     60 N6          3.7980   -3.8880   -0.5710 n         1 MOL     -0.012200
     61 C19         5.1110   -3.4850   -1.1470 c3        1 MOL     -0.133013
     62 C20         5.3480   -1.9590   -1.1690 c         1 MOL      0.586717
     63 O10         4.3350   -1.2000   -0.9910 o         1 MOL     -0.546813
     64 C21         5.2360   -4.1520   -2.5430 c3        1 MOL     -0.279229
     65 C22         5.1840   -5.6800   -2.5360 c         1 MOL      0.737619
     66 N7          4.0230   -6.2730   -2.6390 n         1 MOL     -0.809455
     67 O11         6.1800   -6.3410   -2.6770 o         1 MOL     -0.600061
     68 H28         2.9920   -3.4920   -1.0280 hn        1 MOL      0.212837
     69 H29         5.8620   -3.7850   -0.4140 h1        1 MOL      0.069900
     70 H30         6.2210   -3.9060   -2.9330 hc        1 MOL      0.071242
     71 H31         4.4340   -3.8410   -3.2130 hc        1 MOL      0.071242
     72 H32         3.1210   -5.8220   -2.6700 hn        1 MOL      0.366138
     73 H33         4.0840   -7.2780   -2.6360 hn        1 MOL      0.366138
     74 N8          6.6200   -1.5910   -1.3890 n         1 MOL     -0.387543
     75 C23         7.0520   -0.1580   -1.4980 c3        1 MOL     -0.212538
     76 C24         6.5730    0.8020   -0.4150 c         1 MOL      0.639485
     77 O12         6.9120    0.6500    0.7700 o         1 MOL     -0.507129
     78 H34         7.3870   -2.2200   -1.5660 hn        1 MOL      0.351009
     79 H35         6.7970    0.1810   -2.5030 h1        1 MOL      0.101610
     80 H36         8.1340   -0.2270   -1.3780 h1        1 MOL      0.101610
     81 N9          5.7870    1.8260   -0.8180 n         1 MOL     -0.534161
     82 C25         5.0690    2.7460    0.1110 c3        1 MOL      0.052738
     83 C26         4.0230    2.0510    1.0030 c         1 MOL      0.316466
     84 O13         3.6720    0.8820    0.7000 o         1 MOL     -0.251047
     85 C27         4.4780    3.7870   -0.7630 c3        1 MOL     -0.268891
     86 C28         5.4020    4.7230   -1.3930 ca        1 MOL      0.177160
     87 C29         5.8550    5.8010   -0.6340 ca        1 MOL     -0.193073
     88 C30         5.6000    4.6640   -2.7720 ca        1 MOL     -0.193073
     89 C31         6.4220    6.8770   -1.2320 ca        1 MOL     -0.224077
     90 C32         6.3220    5.7090   -3.3910 ca        1 MOL     -0.224077
     91 C33         6.7550    6.7730   -2.6120 ca        1 MOL      0.271117
     92 O14         7.3210    7.8450   -3.1430 oh        1 MOL     -0.417025
     93 H37         5.5730    1.8850   -1.8020 hn        1 MOL      0.251722
     94 H38         5.8560    3.1700    0.7270 h1        1 MOL      0.122435
     95 H39         3.7970    4.4090   -0.1820 hc        1 MOL      0.078064
     96 H40         3.9760    3.2440   -1.5700 hc        1 MOL      0.078064
     97 H41         5.6990    5.7950    0.4430 ha        1 MOL      0.136397
     98 H42         5.2280    3.8360   -3.3650 ha        1 MOL      0.136397
     99 H43         6.7560    7.7880   -0.7630 ha        1 MOL      0.149662
    100 H44         6.4980    5.7860   -4.4520 ha        1 MOL      0.149662
    101 H45         7.5180    7.6720   -4.0710 ho        1 MOL      0.338300
    102 N10         3.5270    2.8300    1.9690 n         1 MOL     -0.586588
    103 C34         2.7040    2.3510    3.0800 c3        1 MOL      0.132886
    104 C35         1.2820    1.8510    2.5950 c         1 MOL      0.451681
    105 O15         1.2540    1.1330    1.6080 o         1 MOL     -0.473513
    106 C36         3.4860    1.3570    3.9340 c3        1 MOL      0.160621
    107 C37         2.8030    0.8540    5.2550 c3        1 MOL     -0.222958
    108 C38         4.8830    1.8690    4.2520 c3        1 MOL     -0.310689
    109 C39         2.5940    1.8290    6.3950 c3        1 MOL     -0.508441
    110 H46         4.0550    3.6900    2.0780 hn        1 MOL      0.350791
    111 H47         2.5890    3.2400    3.7000 h1        1 MOL      0.046626
    112 H48         3.7140    0.5390    3.2440 hc        1 MOL      0.052836
    113 H49         3.4370    0.0550    5.6220 hc        1 MOL      0.123723
    114 H50         1.8810    0.3420    4.9790 hc        1 MOL      0.123723
    115 H51         5.4390    1.8430    3.3130 hc        1 MOL      0.087695
    116 H52         4.8000    2.8850    4.6420 hc        1 MOL      0.087695
    117 H53         5.2250    1.1790    5.0280 hc        1 MOL      0.087695
    118 H54         3.6080    1.9560    6.7990 hc        1 MOL      0.150321
    119 H55         2.0970    2.7080    5.9880 hc        1 MOL      0.150321
    120 H56         2.0030    1.3760    7.1850 hc        1 MOL      0.150321
    121 N11         0.2370    2.2810    3.2700 n         1 MOL     -0.537434
    122 C40        -1.0950    1.7120    3.2950 c3        1 MOL     -0.006444
    123 C41        -1.8750    1.6930    1.9710 c         1 MOL      0.517142
    124 O16        -2.5390    0.7090    1.7560 o         1 MOL     -0.449321
    125 C42        -2.0380    2.4760    4.2770 c3        1 MOL      0.159491
    126 O17        -1.4740    2.9370    5.5010 oh        1 MOL     -0.614013
    127 H57         0.4750    2.8680    4.0630 hn        1 MOL      0.268754
    128 H58        -0.8980    0.7120    3.6850 h1        1 MOL      0.202292
    129 H59        -2.7990    1.7120    4.4810 h1        1 MOL      0.069560
    130 H60        -2.5710    3.2850    3.7880 h1        1 MOL      0.069560
    131 H61        -1.0070    3.7700    5.4180 ho        1 MOL      0.402379
    132 N12        -1.6640    2.5840    0.9770 n         1 MOL     -0.542674
    133 C43        -2.2480    2.4460   -0.3770 c3        1 MOL      0.086257
    134 C44        -1.7060    1.2600   -1.1710 c         1 MOL      0.479740
    135 O18        -0.6950    0.6930   -0.8010 o         1 MOL     -0.476809
    136 C45        -2.1560    3.8290   -1.1310 c3        1 MOL     -0.312185
    137 H62        -0.8330    3.1670    1.0160 hn        1 MOL      0.299254
    138 H63        -3.3310    2.3770   -0.2740 h1        1 MOL      0.087665
    139 H64        -2.7920    4.6080   -0.6940 hc        1 MOL      0.093958
    140 H65        -1.1200    4.1800   -1.1470 hc        1 MOL      0.093958
    141 H66        -2.5990    3.6940   -2.1130 hc        1 MOL      0.093958
    142 N13        -2.4150    0.5840   -2.1160 n         1 MOL     -0.481654
    143 C46        -3.8010    0.6980   -2.4250 c3        1 MOL      0.172422
    144 C47        -4.1460    2.0240   -3.1180 c         1 MOL      0.529898
    145 O19        -3.4150    2.4460   -4.0500 o         1 MOL     -0.542198
    146 C48        -4.1890   -0.4960   -3.3320 c3        1 MOL     -0.380637
    147 H67        -1.8910   -0.1500   -2.5680 hn        1 MOL      0.339953
    148 H68        -4.2750    0.4850   -1.4700 h1        1 MOL      0.020896
    149 H69        -3.7970   -0.2590   -4.3220 hc        1 MOL      0.109886
    150 H70        -3.9010   -1.4860   -2.9640 hc        1 MOL      0.109886
    151 H71        -5.2670   -0.4290   -3.5060 hc        1 MOL      0.109886
    152 N14        -5.1300    2.8470   -2.7080 n         1 MOL     -0.380870
    153 C49        -6.0030    2.8470   -1.4980 c3        1 MOL     -0.018325
    154 C50        -6.1540    4.2670   -0.9220 c         1 MOL      0.473156
    155 O20        -5.7790    4.6190    0.2080 o         1 MOL     -0.486131
    156 C51        -7.4230    2.1780   -1.8720 c3        1 MOL     -0.124204
    157 C52        -8.4100    2.0380   -0.6620 c3        1 MOL     -0.199346
    158 C53        -9.3530    0.8090   -0.6900 c         1 MOL      0.797470
    159 O21        -9.4820    0.1630    0.3910 o         1 MOL     -0.723408
    160 O22        -9.9200    0.4310   -1.7540 o         1 MOL     -0.723408
    161 H72        -5.0920    3.6820   -3.2620 hn        1 MOL      0.224080
    162 H73        -5.5470    2.3290   -0.6660 h1        1 MOL      0.099061
    163 H74        -7.1810    1.2350   -2.3670 hc        1 MOL      0.019502
    164 H75        -7.7880    2.7500   -2.7250 hc        1 MOL      0.019502
    165 H76        -9.0820    2.8960   -0.7680 hc        1 MOL      0.063685
    166 H77        -7.8510    2.0730    0.2700 hc        1 MOL      0.063685
    167 N15        -6.8590    5.1500   -1.7270 n         1 MOL     -0.290880
    168 C54        -7.2060    6.5360   -1.3530 c3        1 MOL     -0.145501
    169 H78        -6.3870    6.9730   -0.7830 h1        1 MOL      0.090545
    170 H79        -7.3760    7.1250   -2.2540 h1        1 MOL      0.090545
    171 H80        -8.1100    6.5330   -0.7440 h1        1 MOL      0.090545
    172 H81        -7.1370    4.7600   -2.6110 hn        1 MOL      0.270344
    173 Ca1         1.8050   -0.1810   -0.7090 Ca        1 MOL      1.717065
    174 O23         3.3170    0.4600   -3.0620 oh        1 MOL     -0.779492
    175 H82         3.9670   -0.1100   -3.4770 ho        1 MOL      0.401834
    176 H83         3.0610    1.0840   -3.7430 ho        1 MOL      0.401834
    177 O24         1.4620    2.4940   -1.0440 oh        1 MOL     -0.779492
    178 H84         1.1300    3.0590   -0.3430 ho        1 MOL      0.401834
    179 H85         1.3030    2.9910   -1.8440 ho        1 MOL      0.401834
@<TRIPOS>BOND
     1    1    2 1   
     2    1    4 1   
     3    1    5 1   
     4    1    6 1   
     5    2    3 2   
     6    2    7 1   
     7    7    8 1   
     8    7   15 1   
     9    8    9 1   
    10    8   11 1   
    11    8   16 1   
    12    9   10 2   
    13    9   19 1   
    14   11   12 1   
    15   11   17 1   
    16   11   18 1   
    17   12   13 1   
    18   12   14 1   
    19   19   20 1   
    20   19   28 1   
    21   20   21 1   
    22   20   23 1   
    23   20   29 1   
    24   21   22 2   
    25   21   41 1   
    26   23   24 1   
    27   23   30 1   
    28   23   31 1   
    29   24   25 1   
    30   24   32 1   
    31   24   33 1   
    32   25   26 1   
    33   25   34 1   
    34   25   35 1   
    35   26   27 1   
    36   26   36 1   
    37   26   37 1   
    38   27   38 1   
    39   27   39 1   
    40   27   40 1   
    41   41   42 1   
    42   41   49 1   
    43   42   43 1   
    44   42   45 1   
    45   42   50 1   
    46   43   44 2   
    47   43   53 1   
    48   45   46 1   
    49   45   51 1   
    50   45   52 1   
    51   46   47 1   
    52   46   48 1   
    53   53   54 1   
    54   53   57 1   
    55   54   55 1   
    56   54   58 1   
    57   54   59 1   
    58   55   56 2   
    59   55   60 1   
    60   60   61 1   
    61   60   68 1   
    62   61   62 1   
    63   61   64 1   
    64   61   69 1   
    65   62   63 2   
    66   62   74 1   
    67   64   65 1   
    68   64   70 1   
    69   64   71 1   
    70   65   66 1   
    71   65   67 2   
    72   66   72 1   
    73   66   73 1   
    74   74   75 1   
    75   74   78 1   
    76   75   76 1   
    77   75   79 1   
    78   75   80 1   
    79   76   77 2   
    80   76   81 1   
    81   81   82 1   
    82   81   93 1   
    83   82   83 1   
    84   82   85 1   
    85   82   94 1   
    86   83   84 2   
    87   83  102 1   
    88   85   86 1   
    89   85   95 1   
    90   85   96 1   
    91   86   87 ar  
    92   86   88 ar  
    93   87   89 ar  
    94   87   97 1   
    95   88   90 ar  
    96   88   98 1   
    97   89   91 ar  
    98   89   99 1   
    99   90   91 ar  
   100   90  100 1   
   101   91   92 1   
   102   92  101 1   
   103  102  103 1   
   104  102  110 1   
   105  103  104 1   
   106  103  106 1   
   107  103  111 1   
   108  104  105 2   
   109  104  121 1   
   110  106  107 1   
   111  106  108 1   
   112  106  112 1   
   113  107  109 1   
   114  107  113 1   
   115  107  114 1   
   116  108  115 1   
   117  108  116 1   
   118  108  117 1   
   119  109  118 1   
   120  109  119 1   
   121  109  120 1   
   122  121  122 1   
   123  121  127 1   
   124  122  123 1   
   125  122  125 1   
   126  122  128 1   
   127  123  124 2   
   128  123  132 1   
   129  125  126 1   
   130  125  129 1   
   131  125  130 1   
   132  126  131 1   
   133  132  133 1   
   134  132  137 1   
   135  133  134 1   
   136  133  136 1   
   137  133  138 1   
   138  134  135 2   
   139  134  142 1   
   140  136  139 1   
   141  136  140 1   
   142  136  141 1   
   143  142  143 1   
   144  142  147 1   
   145  143  144 1   
   146  143  146 1   
   147  143  148 1   
   148  144  145 2   
   149  144  152 1   
   150  146  149 1   
   151  146  150 1   
   152  146  151 1   
   153  152  153 1   
   154  152  161 1   
   155  153  154 1   
   156  153  156 1   
   157  153  162 1   
   158  154  155 2   
   159  154  167 1   
   160  156  157 1   
   161  156  163 1   
   162  156  164 1   
   163  157  158 1   
   164  157  165 1   
   165  157  166 1   
   166  158  159 1   
   167  158  160 1   
   168  167  168 1   
   169  167  172 1   
   170  168  169 1   
   171  168  170 1   
   172  168  171 1   
   173  174  175 1   
   174  174  176 1   
   175  177  178 1   
   176  177  179 1   
@<TRIPOS>SUBSTRUCTURE
     1 MOL         1 TEMP              0 ****  ****    0 ROOT
