@<TRIPOS>MOLECULE
MOL
  192   187     1     0     0
SMALL
resp


@<TRIPOS>ATOM
      1 C1         -9.5670    0.6650   -1.6580 c3        1 MOL     -0.476011
      2 C2         -8.2230    0.3340   -1.0240 c         1 MOL      0.728497
      3 O1         -7.2410   -0.0270   -1.6540 o         1 MOL     -0.718023
      4 H1        -10.0570    1.4490   -1.0800 hc        1 MOL      0.123143
      5 H2         -9.4130    1.0100   -2.6800 hc        1 MOL      0.123143
      6 H3        -10.1950   -0.2270   -1.6650 hc        1 MOL      0.123143
      7 N1         -8.1960    0.2760    0.2640 n         1 MOL     -0.375648
      8 C3         -7.0050   -0.0320    1.0560 c3        1 MOL     -0.339989
      9 C4         -6.7290   -1.5600    1.0760 c         1 MOL      0.731349
     10 O2         -6.5410   -2.1380    2.1670 o         1 MOL     -0.477126
     11 C5         -7.1570    0.4870    2.4510 c3        1 MOL     -0.010804
     12 C6         -8.3330    0.0500    3.2080 c         1 MOL      0.674646
     13 O3         -8.1730   -0.4050    4.3550 o         1 MOL     -0.620640
     14 O4         -9.4760    0.3420    2.8170 o         1 MOL     -0.620640
     15 H4         -9.0630    0.4140    0.7610 hn        1 MOL      0.202375
     16 H5         -6.0830    0.3380    0.6090 h1        1 MOL      0.294311
     17 H6         -7.0510    1.5690    2.5160 hc        1 MOL      0.044659
     18 H7         -6.2540    0.1770    2.9810 hc        1 MOL      0.044659
     19 N2         -6.6050   -2.2330   -0.0720 n         1 MOL     -0.701906
     20 C7         -6.1010   -3.5930   -0.2090 c3        1 MOL      0.019966
     21 C8         -4.6510   -3.7760    0.2930 c         1 MOL      0.504770
     22 O5         -4.3920   -4.8650    0.8140 o         1 MOL     -0.525419
     23 C9         -6.2570   -4.1790   -1.5940 c3        1 MOL      0.039853
     24 C10        -7.7160   -4.3770   -1.8580 c3        1 MOL     -0.002319
     25 C11        -7.9170   -5.0130   -3.2630 c3        1 MOL     -0.029684
     26 C12        -9.3860   -4.9700   -3.6990 c3        1 MOL      0.168709
     27 N3         -9.6080   -5.1030   -5.0920 n4        1 MOL     -0.280008
     28 H8         -6.7580   -1.6450   -0.8720 hn        1 MOL      0.408474
     29 H9         -6.7660   -4.1520    0.4460 h1        1 MOL      0.103502
     30 H10        -5.8170   -5.1740   -1.5190 hc        1 MOL      0.013080
     31 H11        -5.7670   -3.6860   -2.4370 hc        1 MOL      0.013080
     32 H12        -8.2230   -3.4140   -1.8320 hc        1 MOL      0.030582
     33 H13        -8.0470   -5.0310   -1.0550 hc        1 MOL      0.030582
     34 H14        -7.5080   -6.0090   -3.3780 hc        1 MOL      0.010351
     35 H15        -7.4000   -4.2540   -3.8480 hc        1 MOL      0.010351
     36 H16        -9.8820   -4.1090   -3.2390 hx        1 MOL      0.035578
     37 H17        -9.8810   -5.7310   -3.1110 hx        1 MOL      0.035578
     38 H18        -9.1580   -5.9020   -5.5230 hn        1 MOL      0.231868
     39 H19       -10.5760   -5.2310   -5.3380 hn        1 MOL      0.231868
     40 H20        -9.2000   -4.3270   -5.6060 hn        1 MOL      0.231868
     41 N4         -3.7480   -2.7440    0.1870 n         1 MOL     -0.346842
     42 C13        -3.6920   -1.7240   -0.8730 c3        1 MOL     -0.003234
     43 C14        -3.6880   -0.3050   -0.3180 c         1 MOL     -0.216917
     44 O6         -3.7780   -0.1010    0.9200 o         1 MOL     -0.385796
     45 C15        -2.3180   -1.9360   -1.6760 c3        1 MOL     -0.216329
     46 C16        -0.9780   -2.0100   -0.9680 c         1 MOL      0.756678
     47 O7         -0.6950   -0.9760   -0.2530 o         1 MOL     -0.669907
     48 O8         -0.2080   -2.9480   -1.1380 o         1 MOL     -0.669907
     49 H21        -2.9620   -2.7690    0.8290 hn        1 MOL      0.341867
     50 H22        -4.5440   -1.8330   -1.5270 h1        1 MOL      0.169447
     51 H23        -2.2550   -1.1040   -2.3690 hc        1 MOL      0.048036
     52 H24        -2.4090   -2.8710   -2.2390 hc        1 MOL      0.048036
     53 N5         -3.7180    0.6990   -1.1410 n         1 MOL      0.059209
     54 C17        -3.8290    2.0700   -0.6800 c3        1 MOL     -0.266137
     55 C18        -2.7300    2.8030    0.1490 c         1 MOL      0.730195
     56 O9         -1.5970    2.3000    0.2710 o         1 MOL     -0.576660
     57 H25        -3.8550    0.5270   -2.1200 hn        1 MOL      0.266424
     58 H26        -4.7700    2.0760   -0.1350 h1        1 MOL      0.078861
     59 H27        -3.8500    2.6050   -1.6320 h1        1 MOL      0.078861
     60 N6         -3.1290    3.8570    0.8610 n         1 MOL     -0.538821
     61 C19        -2.2380    4.7120    1.6750 c3        1 MOL      0.368146
     62 C20        -2.6100    6.2660    1.6180 c         1 MOL      0.447889
     63 O10        -3.7690    6.5660    1.4910 o         1 MOL     -0.518489
     64 C21        -2.2370    4.1900    3.1660 c3        1 MOL     -0.386361
     65 C22        -1.6380    2.7840    3.3470 c         1 MOL      0.763361
     66 O11        -0.4790    2.4960    3.0490 o         1 MOL     -0.676561
     67 O12        -2.2970    1.9630    3.9990 o         1 MOL     -0.676561
     68 H28        -4.0410    4.2740    0.7050 hn        1 MOL      0.291709
     69 H29        -1.2690    4.5480    1.1860 h1        1 MOL     -0.052806
     70 H30        -3.2510    4.2010    3.5660 hc        1 MOL      0.100874
     71 H31        -1.6140    4.8810    3.7400 hc        1 MOL      0.100874
     72 N7         -1.6810    7.1990    1.7550 n         1 MOL     -0.490072
     73 C23        -0.2240    6.9790    2.0060 c3        1 MOL      0.035375
     74 C24         0.4370    6.4040    0.7350 c         1 MOL      0.564699
     75 O13        -0.0080    6.4760   -0.3860 o         1 MOL     -0.503625
     76 H32        -1.9800    8.1630    1.7820 hn        1 MOL      0.333882
     77 H33        -0.0860    6.2230    2.7830 h1        1 MOL      0.055583
     78 H34         0.2460    7.9210    2.2820 h1        1 MOL      0.055583
     79 N8          1.6250    5.8400    0.8620 n         1 MOL     -0.585219
     80 C25         2.3040    5.1720   -0.2060 c3        1 MOL      0.096638
     81 C26         1.8350    3.8410   -0.4910 c         1 MOL      0.750403
     82 O14         1.3500    3.1070    0.4020 o         1 MOL     -0.725545
     83 C27         3.7530    5.1260    0.1460 c3        1 MOL      0.332208
     84 C28         4.6870    4.6710   -0.9920 c3        1 MOL     -0.272150
     85 O15         3.9600    4.2560    1.2940 oh        1 MOL     -0.620190
     86 H35         2.1170    5.9670    1.7460 hn        1 MOL      0.284507
     87 H36         2.2180    5.7460   -1.1280 h1        1 MOL      0.024485
     88 H37         4.0310    6.1530    0.3990 h1        1 MOL     -0.017231
     89 H38         3.2120    4.3650    1.8900 ho        1 MOL      0.398124
     90 H39         4.6480    5.3750   -1.8200 hc        1 MOL      0.074345
     91 H40         5.7110    4.6570   -0.6350 hc        1 MOL      0.074345
     92 H41         4.3930    3.6600   -1.2910 hc        1 MOL      0.074345
     93 N9          1.9250    3.5470   -1.7690 n         1 MOL     -0.163800
     94 C29         1.4070    2.3860   -2.4810 c3        1 MOL     -0.473064
     95 C30         1.8500    0.9860   -2.0710 c         1 MOL      0.872473
     96 O16         1.8460    0.7170   -0.9030 o         1 MOL     -0.651542
     97 C31        -0.1180    2.6480   -2.7150 c3        1 MOL      0.084699
     98 C32        -0.4530    4.1100   -3.2450 c3        1 MOL      0.152397
     99 C33        -0.5720    1.5510   -3.7050 c3        1 MOL     -0.301562
    100 C34        -1.9100    4.5010   -3.2450 c3        1 MOL     -0.193217
    101 H42         2.3370    4.2930   -2.3160 hn        1 MOL      0.190782
    102 H43         1.7810    2.4770   -3.4940 h1        1 MOL      0.111169
    103 H44        -0.6950    2.4080   -1.8210 hc        1 MOL      0.048683
    104 H45        -0.0120    4.2720   -4.2260 hc        1 MOL     -0.029007
    105 H46         0.0460    4.8320   -2.5890 hc        1 MOL     -0.029007
    106 H47        -0.6120    0.5550   -3.2660 hc        1 MOL      0.073994
    107 H48        -1.6080    1.7860   -3.9540 hc        1 MOL      0.073994
    108 H49         0.0350    1.5890   -4.6060 hc        1 MOL      0.073994
    109 H50        -2.4610    3.9180   -3.9840 hc        1 MOL      0.044762
    110 H51        -2.3610    4.3970   -2.2620 hc        1 MOL      0.044762
    111 H52        -1.8080    5.5490   -3.5370 hc        1 MOL      0.044762
    112 N10         2.0300    0.0830   -3.0090 n         1 MOL     -0.514338
    113 C35         2.6100   -1.2960   -2.9090 c3        1 MOL     -0.049515
    114 C36         4.1760   -1.4050   -3.1620 c         1 MOL      0.395101
    115 O17         4.6340   -2.5070   -3.3690 o         1 MOL     -0.507959
    116 C37         1.8670   -2.2320   -3.9020 c3        1 MOL      0.418749
    117 C38         2.0800   -1.8210   -5.3200 c3        1 MOL     -0.183249
    118 O18         0.4370   -2.3140   -3.6370 oh        1 MOL     -0.626105
    119 H53         1.6500    0.3700   -3.9070 hn        1 MOL      0.274355
    120 H54         2.4820   -1.5930   -1.8600 h1        1 MOL      0.120491
    121 H55         2.2850   -3.2280   -3.7730 h1        1 MOL      0.000371
    122 H56         0.4500   -2.6680   -2.7420 ho        1 MOL      0.369321
    123 H57         2.0200   -0.7490   -5.5460 hc        1 MOL      0.039442
    124 H58         3.0920   -2.1520   -5.5620 hc        1 MOL      0.039442
    125 H59         1.3690   -2.2720   -6.0240 hc        1 MOL      0.039442
    126 N11         4.8800   -0.2850   -3.1370 n         1 MOL     -0.109993
    127 C39         6.3300   -0.0930   -3.0020 c3        1 MOL     -0.175809
    128 C40         6.6660   -0.3430   -1.5580 c         1 MOL      0.429647
    129 O19         6.5630    0.5430   -0.7430 o         1 MOL     -0.460867
    130 C41         6.7610    1.3640   -3.4180 c3        1 MOL      0.355145
    131 C42         7.3550    1.6660   -4.7990 c3        1 MOL     -0.225851
    132 O20         5.6790    2.2420   -3.2160 oh        1 MOL     -0.559370
    133 H60         4.3460    0.5770   -3.1540 hn        1 MOL      0.106459
    134 H61         6.7780   -0.8570   -3.6520 h1        1 MOL      0.088144
    135 H62         7.5320    1.7400   -2.7550 h1        1 MOL      0.062428
    136 H63         5.1480    2.2190   -4.0090 ho        1 MOL      0.358621
    137 H64         6.9960    0.9540   -5.5360 hc        1 MOL      0.052971
    138 H65         7.0590    2.6890   -5.0690 hc        1 MOL      0.052971
    139 H66         8.4390    1.5600   -4.7590 hc        1 MOL      0.052971
    140 N12         6.8410   -1.6110   -1.2090 n         1 MOL     -0.483619
    141 C43         6.6810   -2.3240    0.0350 c3        1 MOL      0.417709
    142 C44         5.3660   -2.1140    0.7110 c         1 MOL      0.311866
    143 O21         4.7100   -1.1130    0.5370 o         1 MOL     -0.390687
    144 C45         7.9000   -2.1570    1.0150 c3        1 MOL     -0.526026
    145 C46         9.2710   -2.2450    0.3790 c3        1 MOL     -0.126558
    146 C47        10.2560   -2.8350    1.4340 c3        1 MOL      0.232450
    147 C48        11.6780   -2.9470    0.8730 c3        1 MOL      0.012319
    148 N13        12.6370   -3.5380    1.8600 n4        1 MOL     -0.157311
    149 H67         6.9580   -2.2040   -2.0280 hn        1 MOL      0.270632
    150 H68         6.6350   -3.3730   -0.2680 h1        1 MOL      0.006736
    151 H69         7.8840   -2.8610    1.8450 hc        1 MOL      0.188023
    152 H70         7.8400   -1.1370    1.3830 hc        1 MOL      0.188023
    153 H71         9.5710   -1.2460    0.0760 hc        1 MOL      0.080994
    154 H72         9.1750   -2.8650   -0.5150 hc        1 MOL      0.080994
    155 H73         9.9270   -3.8310    1.7490 hc        1 MOL     -0.037183
    156 H74        10.2640   -2.3440    2.4070 hc        1 MOL     -0.037183
    157 H75        11.8410   -1.9420    0.4860 hx        1 MOL      0.038804
    158 H76        11.5530   -3.6020    0.0090 hx        1 MOL      0.038804
    159 H77        12.7050   -2.8470    2.6010 hn        1 MOL      0.195065
    160 H78        12.4630   -4.4690    2.2210 hn        1 MOL      0.195065
    161 H79        13.5610   -3.6130    1.4610 hn        1 MOL      0.195065
    162 N14         4.8800   -3.0930    1.4820 n         1 MOL     -0.551175
    163 C49         3.6770   -2.9050    2.3090 c3        1 MOL      0.288821
    164 C50         2.3360   -2.6970    1.6610 c         1 MOL      0.485509
    165 O22         1.7430   -1.6630    1.8700 o         1 MOL     -0.737882
    166 C51         3.6080   -4.0140    3.4190 c3        1 MOL     -0.294093
    167 C52         2.3950   -3.8550    4.3030 c3        1 MOL     -0.165081
    168 C53         2.4780   -4.6530    5.6110 c         1 MOL      0.699078
    169 O23         1.7950   -5.7030    5.8510 o         1 MOL     -0.607460
    170 O24         3.1650   -4.1890    6.5800 o         1 MOL     -0.607460
    171 H80         5.5180   -3.8590    1.6580 hn        1 MOL      0.283302
    172 H81         3.8520   -1.9560    2.8310 h1        1 MOL      0.084898
    173 H82         4.4710   -3.9940    4.0820 hc        1 MOL      0.071376
    174 H83         3.5920   -4.9980    2.9380 hc        1 MOL      0.071376
    175 H84         1.4740   -4.1030    3.7820 hc        1 MOL      0.068062
    176 H85         2.3460   -2.7770    4.4670 hc        1 MOL      0.068062
    177 N15         1.7760   -3.4440    0.7670 n         1 MOL     -0.174606
    178 C54         2.1420   -4.7960    0.3360 c3        1 MOL     -0.038740
    179 H86         3.1650   -5.0100    0.6460 h1        1 MOL      0.045123
    180 H87         1.4660   -5.5190    0.7930 h1        1 MOL      0.045123
    181 H88         2.0690   -4.8640   -0.7490 h1        1 MOL      0.045123
    182 H89         1.0540   -2.9420    0.2780 hn        1 MOL      0.244136
    183 Ca1         0.5030    0.6630    1.2750 Ca        1 MOL      1.819007
    184 O25         3.3070    1.0310    1.5810 oh        1 MOL     -0.865154
    185 H90         3.5620    1.4860    0.7820 ho        1 MOL      0.419882
    186 H91         4.0520    0.4650    1.7910 ho        1 MOL      0.419882
    187 O26        -1.7290   -0.2460    2.7000 oh        1 MOL     -0.865154
    188 H92        -2.0410    0.4680    3.2640 ho        1 MOL      0.419882
    189 H93        -2.4500   -0.4090    2.0900 ho        1 MOL      0.419882
    190 O27         1.4630    0.5520    3.8280 oh        1 MOL     -0.865154
    191 H94         1.2020    1.0530    4.6030 ho        1 MOL      0.419882
    192 H95         2.0790   -0.0980    4.1440 ho        1 MOL      0.419882
@<TRIPOS>BOND
     1    1    2 1   
     2    1    4 1   
     3    1    5 1   
     4    1    6 1   
     5    2    3 2   
     6    2    7 1   
     7    7    8 1   
     8    7   15 1   
     9    8    9 1   
    10    8   11 1   
    11    8   16 1   
    12    9   10 2   
    13    9   19 1   
    14   11   12 1   
    15   11   17 1   
    16   11   18 1   
    17   12   13 1   
    18   12   14 1   
    19   19   20 1   
    20   19   28 1   
    21   20   21 1   
    22   20   23 1   
    23   20   29 1   
    24   21   22 2   
    25   21   41 1   
    26   23   24 1   
    27   23   30 1   
    28   23   31 1   
    29   24   25 1   
    30   24   32 1   
    31   24   33 1   
    32   25   26 1   
    33   25   34 1   
    34   25   35 1   
    35   26   27 1   
    36   26   36 1   
    37   26   37 1   
    38   27   38 1   
    39   27   39 1   
    40   27   40 1   
    41   41   42 1   
    42   41   49 1   
    43   42   43 1   
    44   42   45 1   
    45   42   50 1   
    46   43   44 2   
    47   43   53 1   
    48   45   46 1   
    49   45   51 1   
    50   45   52 1   
    51   46   47 1   
    52   46   48 1   
    53   53   54 1   
    54   53   57 1   
    55   54   55 1   
    56   54   58 1   
    57   54   59 1   
    58   55   56 2   
    59   55   60 1   
    60   60   61 1   
    61   60   68 1   
    62   61   62 1   
    63   61   64 1   
    64   61   69 1   
    65   62   63 2   
    66   62   72 1   
    67   64   65 1   
    68   64   70 1   
    69   64   71 1   
    70   65   66 1   
    71   65   67 1   
    72   72   73 1   
    73   72   76 1   
    74   73   74 1   
    75   73   77 1   
    76   73   78 1   
    77   74   75 2   
    78   74   79 1   
    79   79   80 1   
    80   79   86 1   
    81   80   81 1   
    82   80   83 1   
    83   80   87 1   
    84   81   82 2   
    85   81   93 1   
    86   83   84 1   
    87   83   85 1   
    88   83   88 1   
    89   84   90 1   
    90   84   91 1   
    91   84   92 1   
    92   85   89 1   
    93   93   94 1   
    94   93  101 1   
    95   94   95 1   
    96   94   97 1   
    97   94  102 1   
    98   95   96 2   
    99   95  112 1   
   100   97   98 1   
   101   97   99 1   
   102   97  103 1   
   103   98  100 1   
   104   98  104 1   
   105   98  105 1   
   106   99  106 1   
   107   99  107 1   
   108   99  108 1   
   109  100  109 1   
   110  100  110 1   
   111  100  111 1   
   112  112  113 1   
   113  112  119 1   
   114  113  114 1   
   115  113  116 1   
   116  113  120 1   
   117  114  115 2   
   118  114  126 1   
   119  116  117 1   
   120  116  118 1   
   121  116  121 1   
   122  117  123 1   
   123  117  124 1   
   124  117  125 1   
   125  118  122 1   
   126  126  127 1   
   127  126  133 1   
   128  127  128 1   
   129  127  130 1   
   130  127  134 1   
   131  128  129 2   
   132  128  140 1   
   133  130  131 1   
   134  130  132 1   
   135  130  135 1   
   136  131  137 1   
   137  131  138 1   
   138  131  139 1   
   139  132  136 1   
   140  140  141 1   
   141  140  149 1   
   142  141  142 1   
   143  141  144 1   
   144  141  150 1   
   145  142  143 2   
   146  142  162 1   
   147  144  145 1   
   148  144  151 1   
   149  144  152 1   
   150  145  146 1   
   151  145  153 1   
   152  145  154 1   
   153  146  147 1   
   154  146  155 1   
   155  146  156 1   
   156  147  148 1   
   157  147  157 1   
   158  147  158 1   
   159  148  159 1   
   160  148  160 1   
   161  148  161 1   
   162  162  163 1   
   163  162  171 1   
   164  163  164 1   
   165  163  166 1   
   166  163  172 1   
   167  164  165 2   
   168  164  177 1   
   169  166  167 1   
   170  166  173 1   
   171  166  174 1   
   172  167  168 1   
   173  167  175 1   
   174  167  176 1   
   175  168  169 1   
   176  168  170 1   
   177  177  178 1   
   178  177  182 1   
   179  178  179 1   
   180  178  180 1   
   181  178  181 1   
   182  184  185 1   
   183  184  186 1   
   184  187  188 1   
   185  187  189 1   
   186  190  191 1   
   187  190  192 1   
@<TRIPOS>SUBSTRUCTURE
     1 MOL         1 TEMP              0 ****  ****    0 ROOT
