@<TRIPOS>MOLECULE
MOL
  179   176     1     0     0
SMALL
resp


@<TRIPOS>ATOM
      1 C1          0.9710   -6.5280    4.8540 c3        1 MOL     -0.338771
      2 C2          0.7850   -5.4470    3.6860 c         1 MOL      0.717502
      3 O1         -0.3080   -5.3260    3.0850 o         1 MOL     -0.614764
      4 H1          1.7730   -7.2160    4.5870 hc        1 MOL      0.098505
      5 H2          1.2250   -6.0180    5.7840 hc        1 MOL      0.098505
      6 H3          0.0430   -7.0850    4.9860 hc        1 MOL      0.098505
      7 N1          1.8200   -4.7270    3.3090 n         1 MOL     -0.635302
      8 C3          1.9340   -3.8640    2.0830 c3        1 MOL     -0.009260
      9 C4          2.4960   -4.6950    0.8510 c         1 MOL      0.669797
     10 O2          3.5200   -5.3330    0.9630 o         1 MOL     -0.544344
     11 C5          2.8730   -2.7140    2.4270 c3        1 MOL      0.213807
     12 C6          3.1910   -1.6870    1.3950 c         1 MOL      0.352255
     13 O3          3.6960   -0.5940    1.6730 o         1 MOL     -0.647566
     14 O4          2.8680   -1.9300    0.1950 o         1 MOL     -0.647566
     15 H4          2.6130   -4.7290    3.9200 hn        1 MOL      0.318600
     16 H5          0.9500   -3.4570    1.8580 h1        1 MOL      0.078010
     17 H6          3.8230   -3.1770    2.7000 hc        1 MOL      0.004808
     18 H7          2.5780   -2.3270    3.4060 hc        1 MOL      0.004808
     19 N2          1.8310   -4.5920   -0.2960 n         1 MOL     -0.469817
     20 C7          2.0210   -5.3750   -1.4680 c3        1 MOL      0.153841
     21 C8          3.3550   -5.0230   -2.2590 c         1 MOL      0.394797
     22 O5          3.7850   -5.7940   -3.1480 o         1 MOL     -0.520314
     23 C9          0.6820   -5.2280   -2.3040 c3        1 MOL     -0.264514
     24 C10         0.3100   -3.7510   -2.6290 c3        1 MOL      0.328473
     25 C11        -0.9820   -3.5990   -3.3580 c3        1 MOL     -0.383781
     26 C12        -1.3350   -2.1320   -3.5730 c3        1 MOL      0.313769
     27 N3         -2.4330   -1.9530   -4.5620 n4        1 MOL     -0.251611
     28 H8          0.9860   -4.0510   -0.3210 hn        1 MOL      0.262779
     29 H9          2.1610   -6.4460   -1.3270 h1        1 MOL      0.066613
     30 H10        -0.1400   -5.6260   -1.7030 hc        1 MOL      0.081000
     31 H11         0.8080   -5.7470   -3.2520 hc        1 MOL      0.081000
     32 H12         1.1070   -3.3310   -3.2480 hc        1 MOL     -0.039019
     33 H13         0.2900   -3.2620   -1.6500 hc        1 MOL     -0.039019
     34 H14        -1.7500   -4.1720   -2.8360 hc        1 MOL      0.101411
     35 H15        -0.8710   -3.9740   -4.3780 hc        1 MOL      0.101411
     36 H16        -0.5440   -1.5500   -4.0490 hx        1 MOL     -0.015979
     37 H17        -1.7470   -1.7040   -2.6540 hx        1 MOL     -0.015979
     38 H18        -3.1900   -2.6220   -4.4990 hn        1 MOL      0.274725
     39 H19        -2.8540   -1.0370   -4.4140 hn        1 MOL      0.274725
     40 H20        -2.1230   -1.9930   -5.5180 hn        1 MOL      0.274725
     41 N4          3.9270   -3.8000   -2.0200 n         1 MOL     -0.075140
     42 C13         5.2110   -3.3820   -2.5500 c3        1 MOL      0.042865
     43 C14         6.2940   -2.7970   -1.5280 c         1 MOL      0.334804
     44 O6          7.4490   -2.4570   -1.7940 o         1 MOL     -0.504599
     45 C15         4.9250   -2.2460   -3.5280 c3        1 MOL     -0.229719
     46 C16         4.1680   -1.1550   -2.7980 c         1 MOL      0.758050
     47 O7          4.8240   -0.4600   -1.9760 o         1 MOL     -0.749577
     48 O8          2.9250   -0.9650   -2.8580 o         1 MOL     -0.749577
     49 H21         3.5080   -3.0580   -1.4790 hn        1 MOL      0.040757
     50 H22         5.7630   -4.1960   -3.0200 h1        1 MOL      0.106216
     51 H23         4.3780   -2.6550   -4.3740 hc        1 MOL      0.072340
     52 H24         5.8250   -1.7950   -3.9560 hc        1 MOL      0.072340
     53 N5          5.7550   -2.7640   -0.3190 n         1 MOL      0.016847
     54 C17         6.5240   -2.5870    0.9320 c3        1 MOL     -0.118971
     55 C18         7.0500   -1.1480    1.1920 c         1 MOL      0.446574
     56 O9          7.7770   -0.8180    2.1670 o         1 MOL     -0.528548
     57 H25         4.7910   -3.0470   -0.2710 hn        1 MOL     -0.035907
     58 H26         7.2990   -3.3140    1.1340 h1        1 MOL      0.101843
     59 H27         5.7870   -2.8220    1.6960 h1        1 MOL      0.101843
     60 N6          6.8030   -0.2070    0.1990 n         1 MOL     -0.164793
     61 C19         7.0970    1.2240    0.1910 c3        1 MOL     -0.018166
     62 C20         5.8800    2.3050    0.0850 c         1 MOL      0.603613
     63 O10         4.7770    1.9180   -0.3610 o         1 MOL     -0.631030
     64 C21         8.1900    1.5080   -0.8540 c3        1 MOL     -0.171289
     65 C22         7.7220    2.0330   -2.2330 c         1 MOL      0.588049
     66 N7          6.7120    1.4880   -2.8530 n         1 MOL     -0.631324
     67 O11         8.2930    3.0450   -2.7000 o         1 MOL     -0.603669
     68 H28         6.1360   -0.4960   -0.5050 hn        1 MOL      0.231182
     69 H29         7.4880    1.4310    1.1800 h1        1 MOL      0.050776
     70 H30         8.8090    0.6390   -1.0970 hc        1 MOL      0.070602
     71 H31         8.7940    2.3630   -0.5670 hc        1 MOL      0.070602
     72 H32         6.0790    0.7890   -2.4930 hn        1 MOL      0.304266
     73 H33         6.4530    2.0390   -3.6540 hn        1 MOL      0.304266
     74 N8          6.1050    3.5150    0.4620 n         1 MOL     -0.432075
     75 C23         5.2310    4.6530    0.3230 c3        1 MOL     -0.045780
     76 C24         3.9500    4.6820    1.1790 c         1 MOL      0.513571
     77 O12         3.9400    4.3130    2.3500 o         1 MOL     -0.489470
     78 H34         7.0160    3.7060    0.8320 hn        1 MOL      0.340510
     79 H35         4.9440    4.8460   -0.7100 h1        1 MOL      0.078154
     80 H36         5.8110    5.5430    0.5630 h1        1 MOL      0.078154
     81 N9          2.8420    4.8710    0.5590 n         1 MOL     -0.462981
     82 C25         1.5640    4.5740    1.1280 c3        1 MOL      0.137131
     83 C26         1.3820    3.0930    1.4970 c         1 MOL      0.229153
     84 O13         2.1750    2.1820    1.1080 o         1 MOL     -0.370069
     85 C27         0.4570    5.0420    0.1400 c3        1 MOL      0.067271
     86 C28         0.3040    6.5240   -0.1180 ca        1 MOL      0.055618
     87 C29         0.2810    7.4410    0.9570 ca        1 MOL     -0.190676
     88 C30        -0.0220    6.9790   -1.4250 ca        1 MOL     -0.190676
     89 C31         0.1680    8.8380    0.7010 ca        1 MOL     -0.250530
     90 C32        -0.2410    8.3810   -1.6680 ca        1 MOL     -0.250530
     91 C33        -0.1370    9.3350   -0.5980 ca        1 MOL      0.331499
     92 O14        -0.2370   10.6820   -0.7790 oh        1 MOL     -0.453928
     93 H37         2.9040    5.0990   -0.4200 hn        1 MOL      0.255042
     94 H38         1.4050    5.1070    2.0640 h1        1 MOL      0.089524
     95 H39        -0.4950    4.6380    0.4800 hc        1 MOL     -0.041071
     96 H40         0.6110    4.6490   -0.8590 hc        1 MOL     -0.041071
     97 H41         0.4740    7.1680    1.9810 ha        1 MOL      0.144311
     98 H42        -0.1050    6.2670   -2.2300 ha        1 MOL      0.144311
     99 H43         0.2460    9.5080    1.5500 ha        1 MOL      0.162843
    100 H44        -0.6270    8.7240   -2.6140 ha        1 MOL      0.162843
    101 H45        -0.6430   10.9190   -1.6170 ho        1 MOL      0.365541
    102 N10         0.4360    2.7780    2.3410 n         1 MOL     -0.214103
    103 C34         0.0920    1.4530    2.8600 c3        1 MOL     -0.237064
    104 C35        -0.2640    0.4550    1.8130 c         1 MOL      0.325398
    105 O15         0.5920   -0.0270    1.0090 o         1 MOL     -0.543319
    106 C36         1.0660    0.8300    3.9640 c3        1 MOL      0.697311
    107 C37         0.5770   -0.5060    4.4980 c3        1 MOL      0.225508
    108 C38         1.1910    1.8740    5.0980 c3        1 MOL     -0.213304
    109 C39         1.2890   -1.0530    5.7980 c3        1 MOL     -0.328919
    110 H46        -0.0390    3.5310    2.8170 hn        1 MOL      0.250472
    111 H47        -0.7920    1.7510    3.4250 h1        1 MOL      0.049854
    112 H48         2.0970    0.6930    3.6350 hc        1 MOL     -0.090169
    113 H49         0.8090   -1.1820    3.6710 hc        1 MOL     -0.101733
    114 H50        -0.4830   -0.3620    4.7160 hc        1 MOL     -0.101733
    115 H51         0.2770    1.8610    5.6850 hc        1 MOL      0.018107
    116 H52         2.0000    1.5060    5.7190 hc        1 MOL      0.018107
    117 H53         1.4890    2.8320    4.6730 hc        1 MOL      0.018107
    118 H54         2.3410   -1.0060    5.5220 hc        1 MOL      0.076075
    119 H55         1.0620   -0.3290    6.5740 hc        1 MOL      0.076075
    120 H56         0.7760   -1.9890    6.0060 hc        1 MOL      0.076075
    121 N11        -1.5030   -0.1160    1.8840 n         1 MOL     -0.176674
    122 C40        -1.9370   -1.3930    1.2510 c3        1 MOL     -0.366589
    123 C41        -3.1550   -1.2240    0.3170 c         1 MOL      0.928919
    124 O16        -3.8270   -2.2320    0.0480 o         1 MOL     -0.607719
    125 C42        -2.1760   -2.3990    2.4290 c3        1 MOL      0.149833
    126 O17        -2.9350   -1.9290    3.5480 oh        1 MOL     -0.637780
    127 H57        -2.2150    0.4070    2.3780 hn        1 MOL      0.274383
    128 H58        -1.0140   -1.6710    0.7410 h1        1 MOL      0.181801
    129 H59        -1.1760   -2.7020    2.7310 h1        1 MOL      0.069221
    130 H60        -2.7090   -3.3140    2.1910 h1        1 MOL      0.069221
    131 H61        -3.0170   -2.6770    4.1520 ho        1 MOL      0.437394
    132 N12        -3.5160   -0.0040   -0.1670 n         1 MOL     -0.608124
    133 C43        -4.7640    0.3660   -0.8420 c3        1 MOL      0.210861
    134 C44        -4.8290   -0.2940   -2.2050 c         1 MOL      0.691437
    135 O18        -3.9680   -0.1880   -3.0390 o         1 MOL     -0.644744
    136 C45        -4.8470    1.8930   -1.0140 c3        1 MOL     -0.419220
    137 H62        -3.0120    0.8090    0.1710 hn        1 MOL      0.232696
    138 H63        -5.6580    0.0110   -0.3180 h1        1 MOL      0.015119
    139 H64        -5.2140    2.4160   -0.1360 hc        1 MOL      0.135479
    140 H65        -3.9910    2.3500   -1.5130 hc        1 MOL      0.135479
    141 H66        -5.5860    2.2110   -1.7520 hc        1 MOL      0.135479
    142 N13        -5.9540   -0.9530   -2.6080 n         1 MOL     -0.715540
    143 C46        -7.0980   -1.2960   -1.7040 c3        1 MOL      0.345743
    144 C47        -8.0950   -0.1170   -1.6900 c         1 MOL      0.619664
    145 O19        -8.0190    0.7680   -2.5860 o         1 MOL     -0.587850
    146 C48        -7.7580   -2.5730   -2.1960 c3        1 MOL     -0.216674
    147 H67        -5.9380   -1.3170   -3.5560 hn        1 MOL      0.358084
    148 H68        -6.7050   -1.5610   -0.7170 h1        1 MOL      0.051850
    149 H69        -8.2900   -2.9780   -1.3330 hc        1 MOL      0.058632
    150 H70        -8.3350   -2.3660   -3.1000 hc        1 MOL      0.058632
    151 H71        -7.0100   -3.3250   -2.4550 hc        1 MOL      0.058632
    152 N14        -9.0570    0.0270   -0.7870 n         1 MOL     -0.553072
    153 C49        -9.4760   -0.8680    0.2900 c3        1 MOL     -0.230445
    154 C50        -9.6340   -0.1810    1.6410 c         1 MOL      0.515432
    155 O20        -9.4240   -0.9210    2.6150 o         1 MOL     -0.546797
    156 C51       -10.7550   -1.6460   -0.1370 c3        1 MOL      0.457015
    157 C52       -12.0540   -0.8260   -0.0800 c3        1 MOL     -0.054061
    158 C53       -12.1430    0.4170   -1.0200 c         1 MOL      0.599968
    159 O21       -11.5000    1.4820   -0.7930 o         1 MOL     -0.652148
    160 O22       -12.7900    0.2250   -2.0670 o         1 MOL     -0.652148
    161 H72        -9.6930    0.8090   -0.8850 hn        1 MOL      0.301203
    162 H73        -8.7230   -1.6600    0.3840 h1        1 MOL      0.072818
    163 H74       -10.8920   -2.5210    0.4930 hc        1 MOL     -0.095476
    164 H75       -10.6900   -2.0030   -1.1640 hc        1 MOL     -0.095476
    165 H76       -12.2060   -0.5970    0.9760 hc        1 MOL     -0.035448
    166 H77       -12.8150   -1.5570   -0.3500 hc        1 MOL     -0.035448
    167 N15        -9.8870    1.1600    1.7750 n         1 MOL     -0.298755
    168 C54       -10.1430    1.8620    3.0550 c3        1 MOL     -0.052736
    169 H78       -10.9350    2.5980    2.9130 h1        1 MOL      0.060967
    170 H79       -10.4510    1.1400    3.8110 h1        1 MOL      0.060967
    171 H80        -9.2340    2.3660    3.3810 h1        1 MOL      0.060967
    172 H81        -9.9880    1.6550    0.8980 hn        1 MOL      0.224718
    173 Ca1         2.6580    0.5570   -0.7760 Ca        1 MOL      1.773168
    174 O23         2.3800    2.7680   -2.3310 oh        1 MOL     -0.878591
    175 H82         2.5950    3.6730   -2.1010 ho        1 MOL      0.431167
    176 H83         1.9560    2.8390   -3.1930 ho        1 MOL      0.431167
    177 O24         0.1960    0.7010   -1.8260 oh        1 MOL     -0.878591
    178 H84        -0.1400    0.6000   -2.7270 ho        1 MOL      0.431167
    179 H85        -0.4030    1.3110   -1.4120 ho        1 MOL      0.431167
@<TRIPOS>BOND
     1    1    2 1   
     2    1    4 1   
     3    1    5 1   
     4    1    6 1   
     5    2    3 2   
     6    2    7 1   
     7    7    8 1   
     8    7   15 1   
     9    8    9 1   
    10    8   11 1   
    11    8   16 1   
    12    9   10 2   
    13    9   19 1   
    14   11   12 1   
    15   11   17 1   
    16   11   18 1   
    17   12   13 1   
    18   12   14 1   
    19   19   20 1   
    20   19   28 1   
    21   20   21 1   
    22   20   23 1   
    23   20   29 1   
    24   21   22 2   
    25   21   41 1   
    26   23   24 1   
    27   23   30 1   
    28   23   31 1   
    29   24   25 1   
    30   24   32 1   
    31   24   33 1   
    32   25   26 1   
    33   25   34 1   
    34   25   35 1   
    35   26   27 1   
    36   26   36 1   
    37   26   37 1   
    38   27   38 1   
    39   27   39 1   
    40   27   40 1   
    41   41   42 1   
    42   41   49 1   
    43   42   43 1   
    44   42   45 1   
    45   42   50 1   
    46   43   44 2   
    47   43   53 1   
    48   45   46 1   
    49   45   51 1   
    50   45   52 1   
    51   46   47 1   
    52   46   48 1   
    53   53   54 1   
    54   53   57 1   
    55   54   55 1   
    56   54   58 1   
    57   54   59 1   
    58   55   56 2   
    59   55   60 1   
    60   60   61 1   
    61   60   68 1   
    62   61   62 1   
    63   61   64 1   
    64   61   69 1   
    65   62   63 2   
    66   62   74 1   
    67   64   65 1   
    68   64   70 1   
    69   64   71 1   
    70   65   66 1   
    71   65   67 2   
    72   66   72 1   
    73   66   73 1   
    74   74   75 1   
    75   74   78 1   
    76   75   76 1   
    77   75   79 1   
    78   75   80 1   
    79   76   77 2   
    80   76   81 1   
    81   81   82 1   
    82   81   93 1   
    83   82   83 1   
    84   82   85 1   
    85   82   94 1   
    86   83   84 2   
    87   83  102 1   
    88   85   86 1   
    89   85   95 1   
    90   85   96 1   
    91   86   87 ar  
    92   86   88 ar  
    93   87   89 ar  
    94   87   97 1   
    95   88   90 ar  
    96   88   98 1   
    97   89   91 ar  
    98   89   99 1   
    99   90   91 ar  
   100   90  100 1   
   101   91   92 1   
   102   92  101 1   
   103  102  103 1   
   104  102  110 1   
   105  103  104 1   
   106  103  106 1   
   107  103  111 1   
   108  104  105 2   
   109  104  121 1   
   110  106  107 1   
   111  106  108 1   
   112  106  112 1   
   113  107  109 1   
   114  107  113 1   
   115  107  114 1   
   116  108  115 1   
   117  108  116 1   
   118  108  117 1   
   119  109  118 1   
   120  109  119 1   
   121  109  120 1   
   122  121  122 1   
   123  121  127 1   
   124  122  123 1   
   125  122  125 1   
   126  122  128 1   
   127  123  124 2   
   128  123  132 1   
   129  125  126 1   
   130  125  129 1   
   131  125  130 1   
   132  126  131 1   
   133  132  133 1   
   134  132  137 1   
   135  133  134 1   
   136  133  136 1   
   137  133  138 1   
   138  134  135 2   
   139  134  142 1   
   140  136  139 1   
   141  136  140 1   
   142  136  141 1   
   143  142  143 1   
   144  142  147 1   
   145  143  144 1   
   146  143  146 1   
   147  143  148 1   
   148  144  145 2   
   149  144  152 1   
   150  146  149 1   
   151  146  150 1   
   152  146  151 1   
   153  152  153 1   
   154  152  161 1   
   155  153  154 1   
   156  153  156 1   
   157  153  162 1   
   158  154  155 2   
   159  154  167 1   
   160  156  157 1   
   161  156  163 1   
   162  156  164 1   
   163  157  158 1   
   164  157  165 1   
   165  157  166 1   
   166  158  159 1   
   167  158  160 1   
   168  167  168 1   
   169  167  172 1   
   170  168  169 1   
   171  168  170 1   
   172  168  171 1   
   173  174  175 1   
   174  174  176 1   
   175  177  178 1   
   176  177  179 1   
@<TRIPOS>SUBSTRUCTURE
     1 MOL         1 TEMP              0 ****  ****    0 ROOT
