@<TRIPOS>MOLECULE
MOL
  178   175     1     0     0
SMALL
resp


@<TRIPOS>ATOM
      1 C1        -12.6600   -6.1240    0.5390 c3        1 MOL     -0.280657
      2 C2        -11.3460   -5.4000    0.8980 c         1 MOL      0.624365
      3 O1        -10.7000   -5.7950    1.8510 o         1 MOL     -0.567978
      4 H1        -12.6420   -6.4050   -0.5140 hc        1 MOL      0.057436
      5 H2        -12.7610   -7.0200    1.1530 hc        1 MOL      0.057436
      6 H3        -13.5040   -5.4590    0.7220 hc        1 MOL      0.057436
      7 N1        -11.0770   -4.2580    0.2600 n         1 MOL     -0.409674
      8 C3        -11.8340   -3.4830   -0.7770 c3        1 MOL      0.141111
      9 C4        -12.4540   -2.1700   -0.2130 c         1 MOL      0.463209
     10 O2        -13.3340   -1.6230   -0.8530 o         1 MOL     -0.567867
     11 C5        -10.8650   -3.2270   -1.9380 c3        1 MOL     -0.205198
     12 C6         -9.6880   -2.3060   -1.5770 c         1 MOL      0.477276
     13 O3         -8.5080   -2.8030   -1.7410 o         1 MOL     -0.642415
     14 O4         -9.8800   -1.1590   -1.2510 o         1 MOL     -0.642415
     15 H4        -10.4070   -3.6690    0.7340 hn        1 MOL      0.251490
     16 H5        -12.6400   -4.0570   -1.2440 h1        1 MOL      0.035674
     17 H6        -11.4530   -2.5440   -2.5500 hc        1 MOL      0.056478
     18 H7        -10.5040   -4.1070   -2.4810 hc        1 MOL      0.056478
     19 N2        -12.0910   -1.6620    0.9690 n         1 MOL     -0.353348
     20 C7        -12.6670   -0.5750    1.8030 c3        1 MOL      0.327987
     21 C8        -11.5810    0.5820    2.0110 c         1 MOL      0.410927
     22 O5        -11.7020    1.3750    2.9670 o         1 MOL     -0.543582
     23 C9        -13.1630   -1.2180    3.1180 c3        1 MOL     -0.347482
     24 H8        -11.2250   -2.0140    1.3520 hn        1 MOL      0.160188
     25 H9        -13.4720   -0.0620    1.2760 h1        1 MOL      0.007268
     26 H10       -12.3500   -1.5100    3.7700 hc        1 MOL      0.091135
     27 H11       -13.7560   -0.4970    3.6870 hc        1 MOL      0.091135
     28 H12       -13.8390   -2.0370    2.8940 hc        1 MOL      0.091135
     29 N3        -10.4440    0.4580    1.2690 n         1 MOL     -0.488990
     30 C10        -9.1430    0.7890    1.8980 c3        1 MOL      0.377989
     31 C11        -8.1990    1.5570    0.9510 c         1 MOL      0.273954
     32 O6         -8.2770    1.4340   -0.3260 o         1 MOL     -0.527711
     33 C12        -8.4900   -0.4280    2.4520 c3        1 MOL     -0.391556
     34 C13        -8.3310   -1.6110    1.4690 c         1 MOL      0.750232
     35 O7         -7.4550   -1.4980    0.6080 o         1 MOL     -0.636598
     36 O8         -9.1450   -2.5640    1.4870 o         1 MOL     -0.636598
     37 H13       -10.4300   -0.1030    0.4330 hn        1 MOL      0.322630
     38 H14        -9.2430    1.5180    2.7080 h1        1 MOL      0.013577
     39 H15        -9.0300   -0.7510    3.3430 hc        1 MOL      0.086171
     40 H16        -7.5480   -0.1940    2.9500 hc        1 MOL      0.086171
     41 N4         -7.3730    2.4840    1.4260 n         1 MOL     -0.300881
     42 C14        -6.3660    3.1600    0.5920 c3        1 MOL     -0.046697
     43 C15        -5.4130    2.2320   -0.1710 c         1 MOL      0.399064
     44 O9         -5.6230    1.0220   -0.2620 o         1 MOL     -0.464037
     45 H17        -7.4060    2.7350    2.4050 hn        1 MOL      0.271176
     46 H18        -5.6550    3.7120    1.2210 h1        1 MOL      0.071751
     47 H19        -6.6920    3.9870   -0.0400 h1        1 MOL      0.071751
     48 N5         -4.3070    2.7870   -0.5940 n         1 MOL     -0.232019
     49 C16        -3.2760    2.1290   -1.4280 c3        1 MOL     -0.115222
     50 C17        -1.9480    2.7220   -1.0240 c         1 MOL      0.683274
     51 O10        -1.0320    2.0340   -0.6470 o         1 MOL     -0.474852
     52 C18        -3.5790    2.4960   -2.9680 c3        1 MOL     -0.078124
     53 C19        -4.7500    1.7900   -3.5730 c         1 MOL      0.720196
     54 N6         -5.2310    2.2200   -4.6660 n         1 MOL     -0.710534
     55 O11        -5.2770    0.8210   -3.0870 o         1 MOL     -0.646694
     56 H20        -4.2530    3.7980   -0.5880 hn        1 MOL      0.187843
     57 H21        -3.1620    1.0590   -1.2870 h1        1 MOL      0.128411
     58 H22        -2.7090    2.3590   -3.6230 hc        1 MOL      0.032851
     59 H23        -3.7900    3.5660   -2.9840 hc        1 MOL      0.032851
     60 H24        -5.0250    3.1520   -5.0280 hn        1 MOL      0.314933
     61 H25        -5.8740    1.6380   -5.1710 hn        1 MOL      0.314933
     62 N7         -1.8160    4.0290   -1.0740 n         1 MOL     -0.651674
     63 C20        -0.5490    4.7330   -0.9110 c3        1 MOL     -0.084963
     64 C21        -0.2800    4.9910    0.6320 c         1 MOL      0.535022
     65 O12        -1.1450    4.7650    1.4490 o         1 MOL     -0.544356
     66 H26        -2.6240    4.6330   -1.1550 hn        1 MOL      0.350683
     67 H27        -0.4230    5.5960   -1.5590 h1        1 MOL      0.137348
     68 H28         0.2130    4.0170   -1.2190 h1        1 MOL      0.137348
     69 N8          0.8820    5.4480    0.9630 n         1 MOL     -0.295923
     70 C22         1.9870    5.8270    0.1180 c3        1 MOL     -0.387214
     71 C23         3.1450    4.8070    0.1460 c         1 MOL      0.622276
     72 O13         4.1040    5.0270   -0.5830 o         1 MOL     -0.552554
     73 C24         2.5240    7.1930    0.5770 c3        1 MOL      0.405699
     74 C25         1.6770    8.4080    0.2110 c3        1 MOL     -0.356661
     75 O14         2.8580    7.1900    1.9940 oh        1 MOL     -0.551885
     76 H29         0.8690    5.8540    1.8900 hn        1 MOL      0.248296
     77 H30         1.6680    5.9840   -0.9120 h1        1 MOL      0.142461
     78 H31         3.4890    7.4020    0.1210 h1        1 MOL      0.044297
     79 H32         2.3970    7.9880    2.2790 ho        1 MOL      0.355688
     80 H33         1.4210    8.3870   -0.8570 hc        1 MOL      0.082463
     81 H34         0.7660    8.6140    0.7680 hc        1 MOL      0.082463
     82 H35         2.3000    9.2840    0.3970 hc        1 MOL      0.082463
     83 N9          3.1910    3.9180    1.1410 n         1 MOL     -0.323764
     84 C26         4.2540    2.8820    1.3730 c3        1 MOL      0.247731
     85 C27         3.9990    1.6780    0.5200 c         1 MOL      0.396889
     86 O15         2.8660    1.2390    0.5790 o         1 MOL     -0.558936
     87 C28         4.1320    2.5140    2.9050 c3        1 MOL     -0.055768
     88 C29         4.5400    3.6780    3.8790 c3        1 MOL      0.035405
     89 C30         4.9420    1.2260    3.3400 c3        1 MOL     -0.078104
     90 C31         5.8310    4.4020    3.4740 c3        1 MOL     -0.062718
     91 H36         2.4110    3.9300    1.7890 hn        1 MOL      0.225391
     92 H37         5.2280    3.3200    1.1460 h1        1 MOL      0.024332
     93 H38         3.0940    2.1950    3.0260 hc        1 MOL      0.029291
     94 H39         4.6370    3.2390    4.8700 hc        1 MOL     -0.017208
     95 H40         3.7570    4.4440    3.9320 hc        1 MOL     -0.017208
     96 H41         4.6780    0.3470    2.7350 hc        1 MOL      0.048315
     97 H42         6.0160    1.3950    3.2490 hc        1 MOL      0.048315
     98 H43         4.8110    1.0150    4.4030 hc        1 MOL      0.048315
     99 H44         5.6230    4.9960    2.5890 hc        1 MOL      0.002184
    100 H45         6.1140    5.0910    4.2760 hc        1 MOL      0.002184
    101 H46         6.6370    3.6880    3.3090 hc        1 MOL      0.002184
    102 N10         4.9500    1.1430   -0.1860 n         1 MOL     -0.371058
    103 C32         6.3140    1.4680   -0.2740 c3        1 MOL      0.269356
    104 C33         7.2250    0.3170   -0.4680 c         1 MOL      0.466511
    105 O16         6.7740   -0.7340   -0.8980 o         1 MOL     -0.524382
    106 C34         6.5720    2.4980   -1.3320 c3        1 MOL     -0.151700
    107 C35         6.0970    2.2810   -2.7990 c         1 MOL      0.762745
    108 O17         6.8380    2.5120   -3.7740 o         1 MOL     -0.738372
    109 O18         4.9500    1.8760   -3.0290 o         1 MOL     -0.738372
    110 H47         4.7150    0.3940   -0.8170 hn        1 MOL      0.288890
    111 H48         6.6550    1.8840    0.6760 h1        1 MOL     -0.026735
    112 H49         7.6480    2.6670   -1.2790 hc        1 MOL     -0.031480
    113 H50         6.0710    3.4080   -1.0040 hc        1 MOL     -0.031480
    114 N11         8.4890    0.5310   -0.1680 n         1 MOL     -0.647539
    115 C36         9.5540   -0.3920   -0.6070 c3        1 MOL      0.650698
    116 C37        10.2170   -1.0220    0.6560 c         1 MOL      0.064946
    117 O19        10.4030   -0.4090    1.7100 o         1 MOL     -0.457687
    118 C38        10.5350    0.3330   -1.5840 c3        1 MOL     -0.121517
    119 C39        11.3940   -0.6880   -2.2600 ca        1 MOL      0.102539
    120 C40        11.0170   -1.2160   -3.4860 ca        1 MOL     -0.202558
    121 C41        12.5970   -1.0240   -1.6390 ca        1 MOL     -0.202558
    122 C42        11.7940   -2.2610   -4.0630 ca        1 MOL     -0.096593
    123 C43        13.3160   -2.1570   -2.1810 ca        1 MOL     -0.096593
    124 C44        12.9400   -2.7270   -3.4150 ca        1 MOL     -0.163061
    125 H51         8.7500    1.3950    0.2920 hn        1 MOL      0.331315
    126 H52         9.1510   -1.1770   -1.2400 h1        1 MOL     -0.016014
    127 H53        11.1670    1.0240   -1.0160 hc        1 MOL      0.012111
    128 H54         9.8470    0.8560   -2.2450 hc        1 MOL      0.012111
    129 H55        10.1260   -0.8030   -3.9280 ha        1 MOL      0.148754
    130 H56        12.9730   -0.4720   -0.7860 ha        1 MOL      0.148754
    131 H57        11.5270   -2.4690   -5.0960 ha        1 MOL      0.107522
    132 H58        14.2050   -2.4830   -1.6700 ha        1 MOL      0.107522
    133 H59        13.4890   -3.6000   -3.7370 ha        1 MOL      0.108944
    134 N12        10.6180   -2.3100    0.5010 n         1 MOL      0.017973
    135 C45        10.0470   -3.3050   -0.4850 c3        1 MOL     -0.059802
    136 C46         8.5420   -3.6080   -0.3170 c         1 MOL      0.549451
    137 O20         7.9800   -4.0310   -1.3130 o         1 MOL     -0.581947
    138 C47        10.9190   -4.5550   -0.3720 c3        1 MOL     -0.016119
    139 C48        12.0230   -4.2210    0.6710 c3        1 MOL     -0.180590
    140 C49        11.5780   -2.9260    1.4310 c3        1 MOL     -0.089156
    141 H60        10.2410   -2.8770   -1.4670 h1        1 MOL      0.084448
    142 H61        10.2820   -5.3400    0.0320 hc        1 MOL      0.050940
    143 H62        11.2450   -4.8870   -1.3550 hc        1 MOL      0.050940
    144 H63        11.9700   -5.1410    1.2550 hc        1 MOL      0.050890
    145 H64        13.0520   -4.1200    0.3340 hc        1 MOL      0.050890
    146 H65        11.0590   -3.0570    2.3790 h1        1 MOL      0.084192
    147 H66        12.4910   -2.4430    1.7650 h1        1 MOL      0.084192
    148 N13         7.8970   -3.5450    0.8260 n         1 MOL     -0.415328
    149 C50         6.5580   -4.0030    1.1530 c3        1 MOL      0.225137
    150 C51         6.2290   -5.4900    0.9080 c         1 MOL      0.333130
    151 O21         6.7080   -6.3310    1.6760 o         1 MOL     -0.562257
    152 C52         6.3290   -3.7130    2.6550 c3        1 MOL      0.134580
    153 C53         6.6250   -2.2080    3.0570 c3        1 MOL     -0.126778
    154 C54         6.1170   -1.9020    4.4590 c         1 MOL      0.743877
    155 O22         6.9370   -1.3670    5.2340 o         1 MOL     -0.714047
    156 O23         4.9950   -2.2740    4.8670 o         1 MOL     -0.714047
    157 H67         8.4620   -3.2990    1.6230 hn        1 MOL      0.290422
    158 H68         5.9000   -3.3110    0.6260 h1        1 MOL      0.047852
    159 H69         6.9710   -4.3240    3.2800 hc        1 MOL     -0.036546
    160 H70         5.2630   -3.8510    2.8430 hc        1 MOL     -0.036546
    161 H71         6.0650   -1.5680    2.3750 hc        1 MOL     -0.037434
    162 H72         7.7010   -2.0940    2.9560 hc        1 MOL     -0.037434
    163 N14         5.5600   -5.8950   -0.1620 n         1 MOL     -0.254242
    164 C55         5.1150   -5.0170   -1.2500 c3        1 MOL     -0.168368
    165 H73         5.0690   -5.5850   -2.1790 h1        1 MOL      0.081460
    166 H74         4.1270   -4.6210   -1.0170 h1        1 MOL      0.081460
    167 H75         5.8200   -4.1930   -1.3630 h1        1 MOL      0.081460
    168 H76         5.2400   -6.8480   -0.1890 hn        1 MOL      0.249346
    169 Ca1        -7.1850   -0.5350   -1.9010 Ca        1 MOL      1.805360
    170 O24        -5.0300   -1.9930   -1.1430 oh        1 MOL     -0.869557
    171 H77        -4.6890   -2.2510   -0.2870 ho        1 MOL      0.415233
    172 H78        -4.2760   -2.0340   -1.7240 ho        1 MOL      0.415233
    173 O25        -8.4030    1.3580   -3.3150 oh        1 MOL     -0.869557
    174 H79        -9.3360    1.2310   -3.5170 ho        1 MOL      0.415233
    175 H80        -8.0500    1.8070   -4.0830 ho        1 MOL      0.415233
    176 O26        -7.5050   -1.7280   -4.1580 oh        1 MOL     -0.869557
    177 H81        -8.0780   -1.4430   -4.8700 ho        1 MOL      0.415233
    178 H82        -7.3620   -2.6610   -4.3370 ho        1 MOL      0.415233
@<TRIPOS>BOND
     1    1    2 1   
     2    1    4 1   
     3    1    5 1   
     4    1    6 1   
     5    2    3 2   
     6    2    7 1   
     7    7    8 1   
     8    7   15 1   
     9    8    9 1   
    10    8   11 1   
    11    8   16 1   
    12    9   10 2   
    13    9   19 1   
    14   11   12 1   
    15   11   17 1   
    16   11   18 1   
    17   12   13 1   
    18   12   14 1   
    19   19   20 1   
    20   19   24 1   
    21   20   21 1   
    22   20   23 1   
    23   20   25 1   
    24   21   22 2   
    25   21   29 1   
    26   23   26 1   
    27   23   27 1   
    28   23   28 1   
    29   29   30 1   
    30   29   37 1   
    31   30   31 1   
    32   30   33 1   
    33   30   38 1   
    34   31   32 2   
    35   31   41 1   
    36   33   34 1   
    37   33   39 1   
    38   33   40 1   
    39   34   35 1   
    40   34   36 1   
    41   41   42 1   
    42   41   45 1   
    43   42   43 1   
    44   42   46 1   
    45   42   47 1   
    46   43   44 2   
    47   43   48 1   
    48   48   49 1   
    49   48   56 1   
    50   49   50 1   
    51   49   52 1   
    52   49   57 1   
    53   50   51 2   
    54   50   62 1   
    55   52   53 1   
    56   52   58 1   
    57   52   59 1   
    58   53   54 1   
    59   53   55 2   
    60   54   60 1   
    61   54   61 1   
    62   62   63 1   
    63   62   66 1   
    64   63   64 1   
    65   63   67 1   
    66   63   68 1   
    67   64   65 2   
    68   64   69 1   
    69   69   70 1   
    70   69   76 1   
    71   70   71 1   
    72   70   73 1   
    73   70   77 1   
    74   71   72 2   
    75   71   83 1   
    76   73   74 1   
    77   73   75 1   
    78   73   78 1   
    79   74   80 1   
    80   74   81 1   
    81   74   82 1   
    82   75   79 1   
    83   83   84 1   
    84   83   91 1   
    85   84   85 1   
    86   84   87 1   
    87   84   92 1   
    88   85   86 2   
    89   85  102 1   
    90   87   88 1   
    91   87   89 1   
    92   87   93 1   
    93   88   90 1   
    94   88   94 1   
    95   88   95 1   
    96   89   96 1   
    97   89   97 1   
    98   89   98 1   
    99   90   99 1   
   100   90  100 1   
   101   90  101 1   
   102  102  103 1   
   103  102  110 1   
   104  103  104 1   
   105  103  106 1   
   106  103  111 1   
   107  104  105 2   
   108  104  114 1   
   109  106  107 1   
   110  106  112 1   
   111  106  113 1   
   112  107  108 1   
   113  107  109 1   
   114  114  115 1   
   115  114  125 1   
   116  115  116 1   
   117  115  118 1   
   118  115  126 1   
   119  116  117 2   
   120  116  134 1   
   121  118  119 1   
   122  118  127 1   
   123  118  128 1   
   124  119  120 ar  
   125  119  121 ar  
   126  120  122 ar  
   127  120  129 1   
   128  121  123 ar  
   129  121  130 1   
   130  122  124 ar  
   131  122  131 1   
   132  123  124 ar  
   133  123  132 1   
   134  124  133 1   
   135  134  135 1   
   136  134  140 1   
   137  135  136 1   
   138  135  138 1   
   139  135  141 1   
   140  136  137 2   
   141  136  148 1   
   142  138  139 1   
   143  138  142 1   
   144  138  143 1   
   145  139  140 1   
   146  139  144 1   
   147  139  145 1   
   148  140  146 1   
   149  140  147 1   
   150  148  149 1   
   151  148  157 1   
   152  149  150 1   
   153  149  152 1   
   154  149  158 1   
   155  150  151 2   
   156  150  163 1   
   157  152  153 1   
   158  152  159 1   
   159  152  160 1   
   160  153  154 1   
   161  153  161 1   
   162  153  162 1   
   163  154  155 1   
   164  154  156 1   
   165  163  164 1   
   166  163  168 1   
   167  164  165 1   
   168  164  166 1   
   169  164  167 1   
   170  170  171 1   
   171  170  172 1   
   172  173  174 1   
   173  173  175 1   
   174  176  177 1   
   175  176  178 1   
@<TRIPOS>SUBSTRUCTURE
     1 MOL         1 TEMP              0 ****  ****    0 ROOT
