@<TRIPOS>MOLECULE
MOL
  195   189     1     0     0
SMALL
resp


@<TRIPOS>ATOM
      1 C1          5.3760   -6.6510   -0.3800 c3        1 MOL     -0.307179
      2 C2          5.4340   -5.1040   -0.2130 c         1 MOL      0.618041
      3 O1          5.7730   -4.5810    0.8570 o         1 MOL     -0.528926
      4 H1          6.0810   -7.1180    0.3080 hc        1 MOL      0.086557
      5 H2          4.3670   -7.0030   -0.1600 hc        1 MOL      0.086557
      6 H3          5.6380   -6.9160   -1.4040 hc        1 MOL      0.086557
      7 N1          5.0580   -4.3370   -1.2700 n         1 MOL     -0.570973
      8 C3          4.8030   -2.8560   -1.2230 c3        1 MOL      0.234522
      9 C4          3.3130   -2.5200   -1.3470 c         1 MOL      0.554384
     10 O2          2.9800   -1.3220   -1.2480 o         1 MOL     -0.588228
     11 C5          5.5870   -2.1790   -2.3220 c3        1 MOL     -0.164534
     12 C6          5.3250   -2.7250   -3.7210 c         1 MOL      0.703732
     13 O3          4.5490   -2.0890   -4.4330 o         1 MOL     -0.717136
     14 O4          5.7920   -3.8180   -4.0170 o         1 MOL     -0.717136
     15 H4          4.8570   -4.7690   -2.1530 hn        1 MOL      0.328535
     16 H5          5.1230   -2.4120   -0.2790 h1        1 MOL     -0.000861
     17 H6          6.6660   -2.3410   -2.2490 hc        1 MOL      0.037755
     18 H7          5.5300   -1.1030   -2.3950 hc        1 MOL      0.037755
     19 N2          2.3870   -3.5090   -1.4180 n         1 MOL     -0.437474
     20 C7          0.9210   -3.2630   -1.3910 c3        1 MOL      0.034619
     21 C8          0.2550   -3.6350   -0.0490 c         1 MOL      0.530405
     22 O5          0.4210   -4.7040    0.5410 o         1 MOL     -0.537177
     23 C9          0.3740   -4.0110   -2.5960 c3        1 MOL     -0.102121
     24 C10         0.9170   -3.7800   -4.0140 c3        1 MOL     -0.064414
     25 C11         0.7750   -2.2610   -4.4910 c3        1 MOL      0.046819
     26 C12         1.2110   -1.9500   -5.9910 c3        1 MOL      0.009631
     27 N3          2.5220   -2.5510   -6.3440 n4        1 MOL     -0.089442
     28 H8          2.7220   -4.4650   -1.4680 hn        1 MOL      0.252323
     29 H9          0.8470   -2.1990   -1.5990 h1        1 MOL      0.116686
     30 H10        -0.7170   -3.9290   -2.6230 hc        1 MOL      0.058366
     31 H11         0.5550   -5.0780   -2.4380 hc        1 MOL      0.058366
     32 H12         0.2580   -4.2890   -4.7170 hc        1 MOL      0.028117
     33 H13         1.9520   -4.1240   -4.0320 hc        1 MOL      0.028117
     34 H14         1.4540   -1.7040   -3.8590 hc        1 MOL      0.035532
     35 H15        -0.2330   -1.8480   -4.3900 hc        1 MOL      0.035532
     36 H16         1.2960   -0.8870   -6.2120 hx        1 MOL      0.049654
     37 H17         0.5230   -2.4130   -6.6990 hx        1 MOL      0.049654
     38 H18         2.7810   -2.3580   -7.3090 hn        1 MOL      0.229527
     39 H19         3.3240   -2.2800   -5.8000 hn        1 MOL      0.229527
     40 H20         2.3330   -3.5450   -6.3630 hn        1 MOL      0.229527
     41 N4         -0.7140   -2.8600    0.5050 n         1 MOL     -0.466818
     42 C13        -1.3720   -1.6000    0.1090 c3        1 MOL      0.201070
     43 C14        -1.9620   -1.4770   -1.3380 c         1 MOL      0.461361
     44 O6         -1.3750   -0.8320   -2.2340 o         1 MOL     -0.562092
     45 C15        -0.4790   -0.5110    0.6350 c3        1 MOL     -0.015386
     46 C16        -0.1930   -0.5970    2.1000 c         1 MOL      0.837922
     47 O7          0.8630   -0.1910    2.5460 o         1 MOL     -0.758542
     48 O8         -1.0860   -1.0910    2.8110 o         1 MOL     -0.758542
     49 H21        -0.7960   -3.0480    1.5000 hn        1 MOL      0.256199
     50 H22        -2.2790   -1.5860    0.7110 h1        1 MOL      0.014558
     51 H23        -0.8920    0.4790    0.4060 hc        1 MOL     -0.004851
     52 H24         0.4370   -0.6110    0.0430 hc        1 MOL     -0.004851
     53 N5         -3.1200   -2.1060   -1.7200 n         1 MOL     -0.365943
     54 C17        -3.9780   -2.9280   -0.8540 c3        1 MOL      0.017368
     55 C18        -5.0760   -3.6700   -1.6480 c         1 MOL      0.522124
     56 O9         -4.8010   -4.0770   -2.7580 o         1 MOL     -0.555361
     57 H25        -3.3110   -2.0840   -2.7120 hn        1 MOL      0.296709
     58 H26        -4.3860   -2.2050   -0.1410 h1        1 MOL      0.036832
     59 H27        -3.3620   -3.5670   -0.2200 h1        1 MOL      0.036832
     60 N6         -6.2820   -3.9750   -1.1640 n         1 MOL     -0.386751
     61 C19        -6.7860   -3.6520    0.1680 c3        1 MOL      0.045172
     62 C20        -7.5710   -2.3230    0.2000 c         1 MOL      0.578984
     63 O10        -7.8070   -1.6760   -0.8140 o         1 MOL     -0.491860
     64 C21        -7.6760   -4.8510    0.5260 c3        1 MOL     -0.311680
     65 C22        -8.7690   -4.9210   -0.5260 c         1 MOL      0.745219
     66 O11        -8.5650   -5.5650   -1.5830 o         1 MOL     -0.652486
     67 O12        -9.8180   -4.3250   -0.3070 o         1 MOL     -0.652486
     68 H28        -6.9090   -4.4950   -1.7530 hn        1 MOL      0.286908
     69 H29        -6.0080   -3.6750    0.9250 h1        1 MOL      0.034988
     70 H30        -7.9540   -4.8450    1.5770 hc        1 MOL      0.054466
     71 H31        -7.0070   -5.6970    0.3540 hc        1 MOL      0.054466
     72 N7         -8.0580   -1.9540    1.3920 n         1 MOL     -0.326779
     73 C23        -8.8550   -0.6970    1.6850 c3        1 MOL     -0.283628
     74 C24        -8.0530    0.6340    1.7860 c         1 MOL      0.522918
     75 O13        -8.6080    1.7490    1.9650 o         1 MOL     -0.544913
     76 H32        -7.9170   -2.6160    2.1410 hn        1 MOL      0.250737
     77 H33        -9.3690   -0.9460    2.6170 h1        1 MOL      0.160498
     78 H34        -9.6250   -0.5480    0.9230 h1        1 MOL      0.160498
     79 N8         -6.7430    0.4740    1.5200 n         1 MOL     -0.216739
     80 C25        -5.7180    1.5450    1.4060 c3        1 MOL     -0.277630
     81 C26        -5.3430    1.7220   -0.1050 c         1 MOL      0.785372
     82 O14        -4.9830    0.7470   -0.7900 o         1 MOL     -0.556663
     83 C27        -4.4830    1.3210    2.2870 c3        1 MOL      0.440460
     84 C28        -3.2410    2.2580    2.1510 c3        1 MOL     -0.647722
     85 O15        -3.9530   -0.0190    2.0520 oh        1 MOL     -0.593100
     86 H35        -6.3500   -0.4380    1.3590 hn        1 MOL      0.106402
     87 H36        -6.1980    2.4870    1.6650 h1        1 MOL      0.087354
     88 H37        -4.9030    1.3450    3.2970 h1        1 MOL      0.024557
     89 H38        -3.0610   -0.0660    2.4070 ho        1 MOL      0.348832
     90 H39        -3.7550    3.2240    2.0940 hc        1 MOL      0.162644
     91 H40        -2.6230    2.2390    3.0450 hc        1 MOL      0.162644
     92 H41        -2.7310    2.0130    1.2200 hc        1 MOL      0.162644
     93 N9         -5.4160    2.9220   -0.5900 n         1 MOL     -0.414083
     94 C29        -4.8750    3.3190   -1.9300 c3        1 MOL     -0.281490
     95 C30        -3.4030    3.8050   -2.0800 c         1 MOL      0.583404
     96 O16        -2.9060    3.8570   -3.1830 o         1 MOL     -0.534413
     97 C31        -5.8300    4.4590   -2.5390 c3        1 MOL      0.129715
     98 C32        -5.9350    5.6810   -1.6920 c3        1 MOL      0.065220
     99 C33        -7.1540    3.7230   -2.9890 c3        1 MOL     -0.230081
    100 C34        -6.4310    6.9480   -2.4810 c3        1 MOL     -0.214821
    101 H42        -5.6470    3.6990    0.0290 hn        1 MOL      0.285992
    102 H43        -5.0020    2.4760   -2.6120 h1        1 MOL      0.176486
    103 H44        -5.2990    4.7600   -3.4410 hc        1 MOL      0.031557
    104 H45        -4.8980    5.8690   -1.4220 hc        1 MOL     -0.017004
    105 H46        -6.4010    5.5110   -0.7210 hc        1 MOL     -0.017004
    106 H47        -7.0050    3.0770   -3.8470 hc        1 MOL      0.071132
    107 H48        -7.6420    3.2130   -2.1530 hc        1 MOL      0.071132
    108 H49        -7.8090    4.4800   -3.4270 hc        1 MOL      0.071132
    109 H50        -6.4750    7.7920   -1.7930 hc        1 MOL      0.056032
    110 H51        -5.6790    7.1570   -3.2380 hc        1 MOL      0.056032
    111 H52        -7.4280    6.8350   -2.8970 hc        1 MOL      0.056032
    112 N10        -2.6590    4.2350   -0.9900 n         1 MOL     -0.267639
    113 C35        -1.3390    4.9010   -1.0860 c3        1 MOL     -0.137344
    114 C36        -0.1570    3.9460   -0.6920 c         1 MOL      0.606989
    115 O17        -0.3070    3.1040    0.2420 o         1 MOL     -0.507791
    116 C37        -1.3320    6.1790   -0.2070 c3        1 MOL      0.421229
    117 C38        -1.5090    5.9240    1.2710 c3        1 MOL     -0.354059
    118 O18        -2.3610    7.0620   -0.6430 oh        1 MOL     -0.598474
    119 H53        -3.0670    4.2040   -0.0650 hn        1 MOL      0.183505
    120 H54        -1.1700    5.2260   -2.1030 h1        1 MOL      0.073111
    121 H55        -0.3340    6.6020   -0.3390 h1        1 MOL     -0.039439
    122 H56        -2.1800    7.2560   -1.5670 ho        1 MOL      0.379787
    123 H57        -1.5760    6.9090    1.7280 hc        1 MOL      0.103599
    124 H58        -2.5110    5.5470    1.4440 hc        1 MOL      0.103599
    125 H59        -0.6450    5.3880    1.6730 hc        1 MOL      0.103599
    126 N11         0.8950    3.8910   -1.4690 n         1 MOL     -0.513870
    127 C39         2.0800    3.0040   -1.3190 c3        1 MOL      0.050749
    128 C40         3.4610    3.6890   -0.8860 c         1 MOL      0.429860
    129 O19         3.6420    4.9100   -0.9050 o         1 MOL     -0.519639
    130 C41         2.2920    2.1770   -2.6340 c3        1 MOL      0.485703
    131 C42         1.0300    1.3660   -2.9340 c3        1 MOL     -0.512869
    132 O20         3.3500    1.1950   -2.5990 oh        1 MOL     -0.793481
    133 H60         0.9030    4.5290   -2.2520 hn        1 MOL      0.283559
    134 H61         1.7550    2.3030   -0.5550 h1        1 MOL      0.048164
    135 H62         2.3390    2.9260   -3.4330 h1        1 MOL     -0.015579
    136 H63         3.2050    0.3910   -2.1070 ho        1 MOL      0.472961
    137 H64         0.7460    0.8470   -2.0230 hc        1 MOL      0.140295
    138 H65         0.2040    2.0480   -3.1870 hc        1 MOL      0.140295
    139 H66         1.2810    0.6230   -3.6940 hc        1 MOL      0.140295
    140 N12         4.4320    2.8520   -0.5250 n         1 MOL     -0.240775
    141 C43         5.8090    3.2600   -0.0920 c3        1 MOL     -0.166096
    142 C44         6.4540    2.5660    1.1550 c         1 MOL      0.632416
    143 O21         7.6390    2.6750    1.4240 o         1 MOL     -0.538345
    144 C45         6.8100    3.1800   -1.2940 c3        1 MOL     -0.016335
    145 C46         6.9970    1.7930   -1.9080 c3        1 MOL     -0.096949
    146 C47         7.8650    1.8560   -3.1580 c3        1 MOL     -0.115896
    147 C48         7.0910    2.0370   -4.4680 c3        1 MOL      0.075992
    148 N13         7.8380    2.6210   -5.5930 n4        1 MOL     -0.292786
    149 H67         4.2350    1.8630   -0.4680 hn        1 MOL      0.224184
    150 H68         5.6730    4.3000    0.1850 h1        1 MOL      0.129346
    151 H69         7.7390    3.7100   -1.0430 hc        1 MOL      0.032605
    152 H70         6.4070    3.8010   -2.1000 hc        1 MOL      0.032605
    153 H71         6.0510    1.3010   -2.1380 hc        1 MOL      0.066709
    154 H72         7.4170    1.1700   -1.1180 hc        1 MOL      0.066709
    155 H73         8.3900    0.9140   -3.3160 hc        1 MOL      0.066798
    156 H74         8.7030    2.5200   -2.9120 hc        1 MOL      0.066798
    157 H75         6.4070    2.8620   -4.2620 hx        1 MOL      0.082980
    158 H76         6.5530    1.1560   -4.8250 hx        1 MOL      0.082980
    159 H77         8.5250    2.0050   -5.9920 hn        1 MOL      0.270463
    160 H78         7.2570    2.7350   -6.4160 hn        1 MOL      0.270463
    161 H79         8.3000    3.4720   -5.3120 hn        1 MOL      0.270463
    162 N14         5.5280    2.0320    1.9880 n         1 MOL     -0.414151
    163 C49         5.8860    1.2860    3.2330 c3        1 MOL     -0.119311
    164 C50         6.5250   -0.0880    2.8280 c         1 MOL      0.373161
    165 O22         5.8270   -0.9690    2.3600 o         1 MOL     -0.366683
    166 C51         4.5350    1.1640    4.0660 c3        1 MOL     -0.265417
    167 C52         4.7400    0.3630    5.3270 c3        1 MOL      0.294525
    168 C53         3.6080    0.6200    6.2290 c         1 MOL      0.487266
    169 O23         2.4790    0.1870    5.9010 o         1 MOL     -0.668004
    170 O24         3.7810    1.2130    7.3350 o         1 MOL     -0.668004
    171 H80         4.5700    2.2130    1.7520 hn        1 MOL      0.259325
    172 H81         6.5990    1.8850    3.7880 h1        1 MOL      0.120058
    173 H82         3.8510    0.5990    3.4300 hc        1 MOL      0.113587
    174 H83         4.1760    2.1750    4.2400 hc        1 MOL      0.113587
    175 H84         5.6530    0.5970    5.8840 hc        1 MOL     -0.042752
    176 H85         4.7330   -0.6710    4.9820 hc        1 MOL     -0.042752
    177 N15         7.7860   -0.2680    3.1780 n         1 MOL     -0.352763
    178 C54         8.5680   -1.4950    2.9180 c3        1 MOL     -0.003291
    179 H86         9.0730   -1.8060    3.8330 h1        1 MOL      0.058059
    180 H87         7.8990   -2.2900    2.5850 h1        1 MOL      0.058059
    181 H88         9.3100   -1.2970    2.1440 h1        1 MOL      0.058059
    182 H89         8.2590    0.5300    3.5780 hn        1 MOL      0.275835
    183 Ca1         0.1400   -0.8150    5.2100 Ca        1 MOL      1.639365
    184 O25         1.9720   -2.0790    7.1450 oh        1 MOL     -0.812953
    185 H90         2.2460   -1.2570    6.7420 ho        1 MOL      0.399316
    186 H91         1.3630   -1.8100    7.8410 ho        1 MOL      0.399316
    187 O26         1.5870   -2.7120    3.9420 oh        1 MOL     -0.812953
    188 H92         2.3150   -2.5320    3.3480 ho        1 MOL      0.399316
    189 H93         1.3530   -3.6190    3.7490 ho        1 MOL      0.399316
    190 O27        -0.3690    1.7200    4.7800 oh        1 MOL     -0.812953
    191 H94        -0.5610    2.2570    5.5500 ho        1 MOL      0.399316
    192 H95        -0.1040    2.3490    4.1080 ho        1 MOL      0.399316
    193 O28        -2.7140   -0.5940    5.3830 oh        1 MOL     -0.812953
    194 H96        -3.0970   -1.4660    5.3290 ho        1 MOL      0.399316
    195 H97        -3.4640    0.0030    5.4890 ho        1 MOL      0.399316
@<TRIPOS>BOND
     1    1    2 1   
     2    1    4 1   
     3    1    5 1   
     4    1    6 1   
     5    2    3 2   
     6    2    7 1   
     7    7    8 1   
     8    7   15 1   
     9    8    9 1   
    10    8   11 1   
    11    8   16 1   
    12    9   10 2   
    13    9   19 1   
    14   11   12 1   
    15   11   17 1   
    16   11   18 1   
    17   12   13 1   
    18   12   14 1   
    19   19   20 1   
    20   19   28 1   
    21   20   21 1   
    22   20   23 1   
    23   20   29 1   
    24   21   22 2   
    25   21   41 1   
    26   23   24 1   
    27   23   30 1   
    28   23   31 1   
    29   24   25 1   
    30   24   32 1   
    31   24   33 1   
    32   25   26 1   
    33   25   34 1   
    34   25   35 1   
    35   26   27 1   
    36   26   36 1   
    37   26   37 1   
    38   27   38 1   
    39   27   39 1   
    40   27   40 1   
    41   41   42 1   
    42   41   49 1   
    43   42   43 1   
    44   42   45 1   
    45   42   50 1   
    46   43   44 2   
    47   43   53 1   
    48   45   46 1   
    49   45   51 1   
    50   45   52 1   
    51   46   47 1   
    52   46   48 1   
    53   53   54 1   
    54   53   57 1   
    55   54   55 1   
    56   54   58 1   
    57   54   59 1   
    58   55   56 2   
    59   55   60 1   
    60   60   61 1   
    61   60   68 1   
    62   61   62 1   
    63   61   64 1   
    64   61   69 1   
    65   62   63 2   
    66   62   72 1   
    67   64   65 1   
    68   64   70 1   
    69   64   71 1   
    70   65   66 1   
    71   65   67 1   
    72   72   73 1   
    73   72   76 1   
    74   73   74 1   
    75   73   77 1   
    76   73   78 1   
    77   74   75 2   
    78   74   79 1   
    79   79   80 1   
    80   79   86 1   
    81   80   81 1   
    82   80   83 1   
    83   80   87 1   
    84   81   82 2   
    85   81   93 1   
    86   83   84 1   
    87   83   85 1   
    88   83   88 1   
    89   84   90 1   
    90   84   91 1   
    91   84   92 1   
    92   85   89 1   
    93   93   94 1   
    94   93  101 1   
    95   94   95 1   
    96   94   97 1   
    97   94  102 1   
    98   95   96 2   
    99   95  112 1   
   100   97   98 1   
   101   97   99 1   
   102   97  103 1   
   103   98  100 1   
   104   98  104 1   
   105   98  105 1   
   106   99  106 1   
   107   99  107 1   
   108   99  108 1   
   109  100  109 1   
   110  100  110 1   
   111  100  111 1   
   112  112  113 1   
   113  112  119 1   
   114  113  114 1   
   115  113  116 1   
   116  113  120 1   
   117  114  115 2   
   118  114  126 1   
   119  116  117 1   
   120  116  118 1   
   121  116  121 1   
   122  117  123 1   
   123  117  124 1   
   124  117  125 1   
   125  118  122 1   
   126  126  127 1   
   127  126  133 1   
   128  127  128 1   
   129  127  130 1   
   130  127  134 1   
   131  128  129 2   
   132  128  140 1   
   133  130  131 1   
   134  130  132 1   
   135  130  135 1   
   136  131  137 1   
   137  131  138 1   
   138  131  139 1   
   139  132  136 1   
   140  140  141 1   
   141  140  149 1   
   142  141  142 1   
   143  141  144 1   
   144  141  150 1   
   145  142  143 2   
   146  142  162 1   
   147  144  145 1   
   148  144  151 1   
   149  144  152 1   
   150  145  146 1   
   151  145  153 1   
   152  145  154 1   
   153  146  147 1   
   154  146  155 1   
   155  146  156 1   
   156  147  148 1   
   157  147  157 1   
   158  147  158 1   
   159  148  159 1   
   160  148  160 1   
   161  148  161 1   
   162  162  163 1   
   163  162  171 1   
   164  163  164 1   
   165  163  166 1   
   166  163  172 1   
   167  164  165 2   
   168  164  177 1   
   169  166  167 1   
   170  166  173 1   
   171  166  174 1   
   172  167  168 1   
   173  167  175 1   
   174  167  176 1   
   175  168  169 1   
   176  168  170 1   
   177  177  178 1   
   178  177  182 1   
   179  178  179 1   
   180  178  180 1   
   181  178  181 1   
   182  184  185 1   
   183  184  186 1   
   184  187  188 1   
   185  187  189 1   
   186  190  191 1   
   187  190  192 1   
   188  193  194 1   
   189  193  195 1   
@<TRIPOS>SUBSTRUCTURE
     1 MOL         1 TEMP              0 ****  ****    0 ROOT
