@<TRIPOS>MOLECULE
MOL
  189   185     1     0     0
SMALL
resp


@<TRIPOS>ATOM
      1 C1        -10.0060    0.6310   -2.0810 c3        1 MOL     -0.478966
      2 C2         -8.7240    0.7070   -1.2070 c         1 MOL      0.689396
      3 O1         -7.6390    1.2210   -1.6630 o         1 MOL     -0.629171
      4 H1        -10.0700   -0.3530   -2.5460 hc        1 MOL      0.125673
      5 H2        -10.8830    0.7940   -1.4540 hc        1 MOL      0.125673
      6 H3         -9.9640    1.3960   -2.8560 hc        1 MOL      0.125673
      7 N1         -8.7550    0.1450    0.0400 n         1 MOL     -0.511717
      8 C3         -7.5480    0.0030    0.9450 c3        1 MOL      0.182681
      9 C4         -7.1170   -1.5170    1.2330 c         1 MOL      0.411121
     10 O2         -6.9940   -1.9080    2.4040 o         1 MOL     -0.402097
     11 C5         -7.8560    0.7620    2.2500 c3        1 MOL     -0.288649
     12 C6         -9.1430    0.4770    3.0130 c         1 MOL      0.703647
     13 O3        -10.0540   -0.2320    2.5640 o         1 MOL     -0.617177
     14 O4         -9.2860    0.9310    4.1780 o         1 MOL     -0.617177
     15 H4         -9.5990   -0.3280    0.3400 hn        1 MOL      0.252583
     16 H5         -6.6760    0.4880    0.5120 h1        1 MOL      0.071292
     17 H6         -7.8730    1.8280    2.0280 hc        1 MOL      0.089866
     18 H7         -7.0490    0.5210    2.9570 hc        1 MOL      0.089866
     19 N2         -6.8020   -2.2440    0.1310 n         1 MOL     -0.361398
     20 C7         -6.2650   -3.6160    0.3310 c3        1 MOL      0.001900
     21 C8         -4.9270   -3.6870    1.1720 c         1 MOL      0.391065
     22 O5         -4.7840   -4.6550    1.9140 o         1 MOL     -0.526238
     23 C9         -6.2470   -4.4210   -0.8980 c3        1 MOL     -0.053788
     24 C10        -7.7130   -4.6230   -1.4060 c3        1 MOL     -0.081388
     25 C11        -7.8290   -5.4420   -2.7400 c3        1 MOL     -0.180397
     26 C12        -9.3600   -5.7610   -2.8000 c3        1 MOL      0.091442
     27 N3         -9.6520   -6.5990   -3.9890 n4        1 MOL     -0.206016
     28 H8         -6.8310   -1.8560   -0.8000 hn        1 MOL      0.209454
     29 H9         -7.0620   -4.0570    0.9410 h1        1 MOL      0.096542
     30 H10        -5.7690   -5.3910   -0.7590 hc        1 MOL      0.058786
     31 H11        -5.6530   -3.9440   -1.6850 hc        1 MOL      0.058786
     32 H12        -8.3280   -3.7280   -1.3390 hc        1 MOL      0.060676
     33 H13        -8.1660   -5.1810   -0.5900 hc        1 MOL      0.060676
     34 H14        -7.1910   -6.3240   -2.6370 hc        1 MOL      0.080136
     35 H15        -7.4420   -4.8780   -3.5800 hc        1 MOL      0.080136
     36 H16        -9.8670   -4.8000   -2.8980 hx        1 MOL      0.067151
     37 H17        -9.6880   -6.2650   -1.8860 hx        1 MOL      0.067151
     38 H18        -8.8960   -7.2460   -4.1270 hn        1 MOL      0.229942
     39 H19       -10.5160   -7.1170   -3.9590 hn        1 MOL      0.229942
     40 H20        -9.7350   -5.9490   -4.7600 hn        1 MOL      0.229942
     41 N4         -3.9120   -2.8770    0.9500 n         1 MOL     -0.164469
     42 C13        -3.7980   -1.7530   -0.0210 c3        1 MOL     -0.039804
     43 C14        -3.8640   -0.2920    0.4350 c         1 MOL      0.093931
     44 O6         -4.0360   -0.1010    1.6220 o         1 MOL     -0.381660
     45 C15        -2.4140   -1.9250   -0.7910 c3        1 MOL     -0.263643
     46 C16        -1.0920   -2.1750    0.0080 c         1 MOL      0.688374
     47 O7         -0.8110   -1.3250    0.8830 o         1 MOL     -0.640607
     48 O8         -0.3040   -3.0760   -0.4120 o         1 MOL     -0.640607
     49 H21        -3.0820   -3.0900    1.4860 hn        1 MOL      0.261283
     50 H22        -4.5420   -1.9040   -0.8010 h1        1 MOL      0.140545
     51 H23        -2.2310   -1.0290   -1.3900 hc        1 MOL      0.044838
     52 H24        -2.6210   -2.8490   -1.3350 hc        1 MOL      0.044838
     53 N5         -3.8910    0.6770   -0.4840 n         1 MOL     -0.209068
     54 C17        -4.0880    2.0320   -0.0880 c3        1 MOL     -0.053509
     55 C18        -2.7930    2.7410    0.3300 c         1 MOL      0.776583
     56 O9         -1.7950    2.1060    0.4880 o         1 MOL     -0.655789
     57 H25        -3.7400    0.4720   -1.4590 hn        1 MOL      0.241326
     58 H26        -4.7100    2.0280    0.8020 h1        1 MOL      0.077620
     59 H27        -4.6560    2.5760   -0.8470 h1        1 MOL      0.077620
     60 N6         -2.7930    4.0680    0.3790 n         1 MOL     -0.756087
     61 C19        -1.8120    4.8310    1.1860 c3        1 MOL      0.492202
     62 C20        -1.9580    6.3250    0.8120 c         1 MOL      0.496217
     63 O10        -3.0610    6.7970    0.6270 o         1 MOL     -0.546135
     64 C21        -1.9620    4.7250    2.7270 c3        1 MOL     -0.487190
     65 C22        -0.8420    3.8750    3.4680 c         1 MOL      0.792140
     66 O11        -0.6410    4.0140    4.6740 o         1 MOL     -0.690776
     67 O12        -0.1160    3.0320    2.8940 o         1 MOL     -0.690776
     68 H28        -3.4970    4.6830    0.0170 hn        1 MOL      0.307826
     69 H29        -0.8140    4.4800    0.9130 h1        1 MOL     -0.012481
     70 H30        -2.8890    4.1760    2.9120 hc        1 MOL      0.128448
     71 H31        -2.1740    5.7000    3.1590 hc        1 MOL      0.128448
     72 N7         -0.9710    7.1770    0.9340 n         1 MOL     -0.470841
     73 C23         0.4070    6.8410    1.2360 c3        1 MOL      0.099012
     74 C24         1.2170    6.3650    0.0890 c         1 MOL      0.443022
     75 O13         0.8460    6.6430   -1.1260 o         1 MOL     -0.524140
     76 H32        -1.0240    8.0950    0.5300 hn        1 MOL      0.316556
     77 H33         0.4260    6.0680    1.9920 h1        1 MOL      0.039585
     78 H34         0.8180    7.7290    1.7310 h1        1 MOL      0.039585
     79 N8          2.1720    5.4890    0.3260 n         1 MOL     -0.596138
     80 C25         2.7400    4.6350   -0.7260 c3        1 MOL      0.257912
     81 C26         1.8200    3.4400   -1.0200 c         1 MOL      0.914337
     82 O14         1.1530    2.9040   -0.1070 o         1 MOL     -0.855107
     83 C27         4.2260    4.3460   -0.4460 c3        1 MOL      0.293996
     84 C28         4.9690    4.0920   -1.7830 c3        1 MOL     -0.228151
     85 O15         4.4240    3.3300    0.4780 oh        1 MOL     -0.719254
     86 H35         2.4310    5.2730    1.2780 hn        1 MOL      0.352839
     87 H36         2.7730    5.1820   -1.6700 h1        1 MOL     -0.008592
     88 H37         4.6510    5.2840   -0.0770 h1        1 MOL      0.010302
     89 H38         5.3550    3.3800    0.6870 ho        1 MOL      0.465471
     90 H39         6.0460    4.1280   -1.5970 hc        1 MOL      0.050891
     91 H40         4.8450    3.0970   -2.2130 hc        1 MOL      0.050891
     92 H41         4.7870    4.8920   -2.4910 hc        1 MOL      0.050891
     93 N9          1.7570    3.0730   -2.3130 n         1 MOL     -0.673563
     94 C29         0.8520    2.0620   -2.8470 c3        1 MOL      0.033638
     95 C30         1.0680    0.7110   -2.2340 c         1 MOL      0.321374
     96 O16         0.6930    0.3630   -1.0770 o         1 MOL     -0.403306
     97 C31        -0.6560    2.5630   -2.7850 c3        1 MOL     -0.019295
     98 C32        -0.9780    3.8610   -3.6490 c3        1 MOL      0.022214
     99 C33        -1.6250    1.4750   -3.2300 c3        1 MOL     -0.452043
    100 C34        -2.2310    4.5730   -3.3770 c3        1 MOL     -0.150686
    101 H42         2.1740    3.7150   -2.9820 hn        1 MOL      0.314078
    102 H43         1.0660    2.0380   -3.9160 h1        1 MOL      0.089248
    103 H44        -0.8390    2.6900   -1.7160 hc        1 MOL      0.178358
    104 H45        -0.7980    3.6820   -4.7170 hc        1 MOL      0.015265
    105 H46        -0.2880    4.6090   -3.2550 hc        1 MOL      0.015265
    106 H47        -2.6740    1.8060   -3.2130 hc        1 MOL      0.125129
    107 H48        -1.4470    1.2100   -4.2700 hc        1 MOL      0.125129
    108 H49        -1.5470    0.5840   -2.6170 hc        1 MOL      0.125129
    109 H50        -2.3520    4.7980   -2.3130 hc        1 MOL      0.044949
    110 H51        -2.1600    5.5470   -3.8720 hc        1 MOL      0.044949
    111 H52        -3.1010    3.9930   -3.7060 hc        1 MOL      0.044949
    112 N10         1.7380   -0.1350   -3.0640 n         1 MOL     -0.163915
    113 C35         2.1430   -1.4910   -2.7520 c3        1 MOL     -0.275999
    114 C36         3.5770   -1.8160   -3.0580 c         1 MOL      0.575728
    115 O17         3.9790   -3.0070   -2.9490 o         1 MOL     -0.566757
    116 C37         1.2890   -2.5570   -3.5160 c3        1 MOL      0.376762
    117 C38         1.2720   -2.3830   -4.9900 c3        1 MOL     -0.197670
    118 O18        -0.0520   -2.4130   -3.1880 oh        1 MOL     -0.628887
    119 H53         1.9940    0.1880   -3.9880 hn        1 MOL      0.225312
    120 H54         2.0510   -1.4830   -1.6700 h1        1 MOL      0.154295
    121 H55         1.5900   -3.5650   -3.2420 h1        1 MOL      0.044176
    122 H56        -0.1680   -2.4610   -2.2430 ho        1 MOL      0.372068
    123 H57         1.0220   -1.3690   -5.3120 hc        1 MOL      0.050149
    124 H58         2.2430   -2.5520   -5.4430 hc        1 MOL      0.050149
    125 H59         0.6140   -3.0680   -5.5170 hc        1 MOL      0.050149
    126 N11         4.3420   -0.8550   -3.5380 n         1 MOL     -0.405590
    127 C39         5.8810   -0.9860   -3.6010 c3        1 MOL      0.143559
    128 C40         6.3830   -0.8580   -2.1620 c         1 MOL      0.520613
    129 O19         6.7260    0.1940   -1.7120 o         1 MOL     -0.511241
    130 C41         6.5530    0.0780   -4.4610 c3        1 MOL      0.350664
    131 C42         8.0220   -0.2580   -4.7160 c3        1 MOL     -0.524985
    132 O20         6.0580   -0.0870   -5.7570 oh        1 MOL     -0.663908
    133 H60         3.9620    0.0750   -3.5840 hn        1 MOL      0.249720
    134 H61         6.2010   -1.9850   -3.8880 h1        1 MOL      0.067375
    135 H62         6.4530    1.0870   -4.0680 h1        1 MOL      0.016414
    136 H63         6.6980    0.3070   -6.3620 ho        1 MOL      0.411037
    137 H64         8.4780   -0.2020   -3.7210 hc        1 MOL      0.141825
    138 H65         8.1570   -1.2770   -5.0600 hc        1 MOL      0.141825
    139 H66         8.4670    0.5580   -5.2870 hc        1 MOL      0.141825
    140 N12         6.4130   -1.9610   -1.4310 n         1 MOL     -0.678802
    141 C43         6.5130   -2.2400    0.0320 c3        1 MOL      0.357208
    142 C44         5.3360   -1.7250    0.8410 c         1 MOL      0.496758
    143 O21         4.8020   -0.6060    0.6070 o         1 MOL     -0.513329
    144 C45         7.8860   -1.8610    0.6090 c3        1 MOL     -0.281122
    145 C46         8.9590   -2.6000   -0.2180 c3        1 MOL     -0.024473
    146 C47        10.3780   -2.3350    0.2880 c3        1 MOL      0.005213
    147 C48        10.6120   -2.9990    1.6670 c3        1 MOL      0.059689
    148 N13        11.9870   -2.7610    2.2140 n4        1 MOL     -0.305768
    149 H67         6.0380   -2.7550   -1.9170 hn        1 MOL      0.309016
    150 H68         6.4420   -3.3300    0.1350 h1        1 MOL      0.019646
    151 H69         7.9440   -2.2240    1.6380 hc        1 MOL      0.116681
    152 H70         8.0720   -0.7880    0.5700 hc        1 MOL      0.116681
    153 H71         9.0000   -2.1630   -1.2170 hc        1 MOL      0.040165
    154 H72         8.8550   -3.6820   -0.3010 hc        1 MOL      0.040165
    155 H73        10.6940   -1.2950    0.2250 hc        1 MOL      0.022128
    156 H74        11.1490   -2.7200   -0.3780 hc        1 MOL      0.022128
    157 H75        10.5630   -4.0850    1.5810 hx        1 MOL      0.046885
    158 H76         9.7710   -2.6540    2.2790 hx        1 MOL      0.046885
    159 H77        12.6270   -3.2550    1.6170 hn        1 MOL      0.255334
    160 H78        12.1550   -1.7670    2.2580 hn        1 MOL      0.255334
    161 H79        12.0790   -3.1080    3.1590 hn        1 MOL      0.255334
    162 N14         4.9580   -2.4830    1.9060 n         1 MOL     -0.676162
    163 C49         3.9020   -2.0380    2.7830 c3        1 MOL      0.546821
    164 C50         2.5100   -2.0040    2.0400 c         1 MOL      0.124891
    165 O22         1.7540   -1.0280    2.2680 o         1 MOL     -0.621830
    166 C51         3.8970   -2.8050    4.1000 c3        1 MOL     -0.089560
    167 C52         5.2260   -2.5230    4.8850 c3        1 MOL     -0.233625
    168 C53         5.1910   -3.1500    6.2820 c         1 MOL      0.638348
    169 O23         5.3460   -2.4280    7.3530 o         1 MOL     -0.628955
    170 O24         4.8830   -4.3400    6.3840 o         1 MOL     -0.628955
    171 H80         5.4930   -3.3140    2.0970 hn        1 MOL      0.314082
    172 H81         4.1340   -1.0140    3.0520 h1        1 MOL     -0.020978
    173 H82         3.6880   -3.8670    3.9260 hc        1 MOL      0.085302
    174 H83         3.1270   -2.2990    4.6730 hc        1 MOL      0.085302
    175 H84         5.3580   -1.4430    4.9480 hc        1 MOL      0.030202
    176 H85         6.1370   -2.9050    4.4240 hc        1 MOL      0.030202
    177 N15         2.0340   -2.9910    1.2970 n         1 MOL     -0.075684
    178 C54         2.4270   -4.3930    1.2500 c3        1 MOL     -0.087341
    179 H86         2.9990   -4.5790    0.3410 h1        1 MOL      0.045339
    180 H87         3.0410   -4.6270    2.1200 h1        1 MOL      0.045339
    181 H88         1.5360   -5.0200    1.2530 h1        1 MOL      0.045339
    182 H89         1.2510   -2.6560    0.7610 hn        1 MOL      0.243643
    183 Ca1         0.3520    0.9340    1.4160 Ca        1 MOL      1.735935
    184 O25         2.9310    1.2320    1.3120 oh        1 MOL     -0.867651
    185 H90         3.6170    0.6170    1.0520 ho        1 MOL      0.437672
    186 H91         3.2770    2.0870    1.0660 ho        1 MOL      0.437672
    187 O26        -0.7020    0.0120    3.8420 oh        1 MOL     -0.867651
    188 H92        -0.5420   -0.9080    3.6400 ho        1 MOL      0.437672
    189 H93        -1.6210    0.0360    4.1470 ho        1 MOL      0.437672
@<TRIPOS>BOND
     1    1    2 1   
     2    1    4 1   
     3    1    5 1   
     4    1    6 1   
     5    2    3 2   
     6    2    7 1   
     7    7    8 1   
     8    7   15 1   
     9    8    9 1   
    10    8   11 1   
    11    8   16 1   
    12    9   10 2   
    13    9   19 1   
    14   11   12 1   
    15   11   17 1   
    16   11   18 1   
    17   12   13 1   
    18   12   14 1   
    19   19   20 1   
    20   19   28 1   
    21   20   21 1   
    22   20   23 1   
    23   20   29 1   
    24   21   22 2   
    25   21   41 1   
    26   23   24 1   
    27   23   30 1   
    28   23   31 1   
    29   24   25 1   
    30   24   32 1   
    31   24   33 1   
    32   25   26 1   
    33   25   34 1   
    34   25   35 1   
    35   26   27 1   
    36   26   36 1   
    37   26   37 1   
    38   27   38 1   
    39   27   39 1   
    40   27   40 1   
    41   41   42 1   
    42   41   49 1   
    43   42   43 1   
    44   42   45 1   
    45   42   50 1   
    46   43   44 2   
    47   43   53 1   
    48   45   46 1   
    49   45   51 1   
    50   45   52 1   
    51   46   47 1   
    52   46   48 1   
    53   53   54 1   
    54   53   57 1   
    55   54   55 1   
    56   54   58 1   
    57   54   59 1   
    58   55   56 2   
    59   55   60 1   
    60   60   61 1   
    61   60   68 1   
    62   61   62 1   
    63   61   64 1   
    64   61   69 1   
    65   62   63 2   
    66   62   72 1   
    67   64   65 1   
    68   64   70 1   
    69   64   71 1   
    70   65   66 1   
    71   65   67 1   
    72   72   73 1   
    73   72   76 1   
    74   73   74 1   
    75   73   77 1   
    76   73   78 1   
    77   74   75 2   
    78   74   79 1   
    79   79   80 1   
    80   79   86 1   
    81   80   81 1   
    82   80   83 1   
    83   80   87 1   
    84   81   82 2   
    85   81   93 1   
    86   83   84 1   
    87   83   85 1   
    88   83   88 1   
    89   84   90 1   
    90   84   91 1   
    91   84   92 1   
    92   85   89 1   
    93   93   94 1   
    94   93  101 1   
    95   94   95 1   
    96   94   97 1   
    97   94  102 1   
    98   95   96 2   
    99   95  112 1   
   100   97   98 1   
   101   97   99 1   
   102   97  103 1   
   103   98  100 1   
   104   98  104 1   
   105   98  105 1   
   106   99  106 1   
   107   99  107 1   
   108   99  108 1   
   109  100  109 1   
   110  100  110 1   
   111  100  111 1   
   112  112  113 1   
   113  112  119 1   
   114  113  114 1   
   115  113  116 1   
   116  113  120 1   
   117  114  115 2   
   118  114  126 1   
   119  116  117 1   
   120  116  118 1   
   121  116  121 1   
   122  117  123 1   
   123  117  124 1   
   124  117  125 1   
   125  118  122 1   
   126  126  127 1   
   127  126  133 1   
   128  127  128 1   
   129  127  130 1   
   130  127  134 1   
   131  128  129 2   
   132  128  140 1   
   133  130  131 1   
   134  130  132 1   
   135  130  135 1   
   136  131  137 1   
   137  131  138 1   
   138  131  139 1   
   139  132  136 1   
   140  140  141 1   
   141  140  149 1   
   142  141  142 1   
   143  141  144 1   
   144  141  150 1   
   145  142  143 2   
   146  142  162 1   
   147  144  145 1   
   148  144  151 1   
   149  144  152 1   
   150  145  146 1   
   151  145  153 1   
   152  145  154 1   
   153  146  147 1   
   154  146  155 1   
   155  146  156 1   
   156  147  148 1   
   157  147  157 1   
   158  147  158 1   
   159  148  159 1   
   160  148  160 1   
   161  148  161 1   
   162  162  163 1   
   163  162  171 1   
   164  163  164 1   
   165  163  166 1   
   166  163  172 1   
   167  164  165 2   
   168  164  177 1   
   169  166  167 1   
   170  166  173 1   
   171  166  174 1   
   172  167  168 1   
   173  167  175 1   
   174  167  176 1   
   175  168  169 1   
   176  168  170 1   
   177  177  178 1   
   178  177  182 1   
   179  178  179 1   
   180  178  180 1   
   181  178  181 1   
   182  184  185 1   
   183  184  186 1   
   184  187  188 1   
   185  187  189 1   
@<TRIPOS>SUBSTRUCTURE
     1 MOL         1 TEMP              0 ****  ****    0 ROOT
