@<TRIPOS>MOLECULE
MOL
  192   187     1     0     0
SMALL
resp


@<TRIPOS>ATOM
      1 C1         -9.8710    0.8980   -1.1660 c3        1 MOL     -0.491507
      2 C2         -8.6120    0.2470   -0.5320 c         1 MOL      0.703388
      3 O1         -7.5720    0.0140   -1.2000 o         1 MOL     -0.676394
      4 H1        -10.5410    1.2360   -0.3760 hc        1 MOL      0.133262
      5 H2         -9.5710    1.7510   -1.7760 hc        1 MOL      0.133262
      6 H3        -10.3840    0.1670   -1.7900 hc        1 MOL      0.133262
      7 N1         -8.6230   -0.0880    0.7900 n         1 MOL     -0.524181
      8 C3         -7.4680   -0.5760    1.5100 c3        1 MOL      0.019928
      9 C4         -7.0000   -2.0330    1.2140 c         1 MOL      0.586157
     10 O2         -7.0600   -2.9160    2.0440 o         1 MOL     -0.464033
     11 C5         -7.8080   -0.3890    3.0360 c3        1 MOL     -0.223286
     12 C6         -9.0460   -1.0850    3.4720 c         1 MOL      0.668786
     13 O3         -9.1580   -1.3850    4.7350 o         1 MOL     -0.626677
     14 O4         -9.9770   -1.4030    2.6910 o         1 MOL     -0.626677
     15 H4         -9.3960    0.0560    1.4210 hn        1 MOL      0.288700
     16 H5         -6.6850    0.1470    1.2970 h1        1 MOL      0.094141
     17 H6         -7.9800    0.6520    3.2960 hc        1 MOL      0.078721
     18 H7         -6.9320   -0.7210    3.6020 hc        1 MOL      0.078721
     19 N2         -6.7090   -2.2720   -0.0390 n         1 MOL     -0.450773
     20 C7         -6.1290   -3.5570   -0.4900 c3        1 MOL      0.026034
     21 C8         -4.6020   -3.6800   -0.0460 c         1 MOL      0.471414
     22 O5         -4.1070   -4.7610    0.2920 o         1 MOL     -0.550153
     23 C9         -6.4260   -3.8640   -1.9970 c3        1 MOL      0.156615
     24 C10        -7.9320   -3.8580   -2.2990 c3        1 MOL     -0.158131
     25 C11        -8.1170   -4.3410   -3.6720 c3        1 MOL      0.015983
     26 C12        -9.5120   -4.1850   -4.3770 c3        1 MOL      0.046943
     27 N3         -9.6350   -4.8680   -5.6790 n4        1 MOL     -0.242157
     28 H8         -6.8590   -1.5820   -0.7540 hn        1 MOL      0.310356
     29 H9         -6.5270   -4.4500   -0.0110 h1        1 MOL      0.058738
     30 H10        -5.9340   -4.8060   -2.2650 hc        1 MOL     -0.018606
     31 H11        -5.8670   -3.1530   -2.6110 hc        1 MOL     -0.018606
     32 H12        -8.3530   -2.8610   -2.1260 hc        1 MOL      0.069337
     33 H13        -8.3450   -4.5520   -1.5720 hc        1 MOL      0.069337
     34 H14        -7.9470   -5.4190   -3.6470 hc        1 MOL      0.019247
     35 H15        -7.3160   -3.9430   -4.2860 hc        1 MOL      0.019247
     36 H16        -9.6370   -3.1170   -4.5600 hx        1 MOL      0.066582
     37 H17       -10.2660   -4.5560   -3.6780 hx        1 MOL      0.066582
     38 H18        -9.4380   -5.8510   -5.5310 hn        1 MOL      0.239345
     39 H19       -10.5230   -4.7700   -6.1460 hn        1 MOL      0.239345
     40 H20        -9.0390   -4.4860   -6.3950 hn        1 MOL      0.239345
     41 N4         -3.8030   -2.6420   -0.0590 n         1 MOL     -0.366006
     42 C13        -3.9660   -1.3450   -0.7200 c3        1 MOL      0.039980
     43 C14        -3.9240   -0.1700    0.2310 c         1 MOL      0.006842
     44 O6         -3.6660   -0.3970    1.4100 o         1 MOL     -0.345284
     45 C15        -2.6770   -1.1340   -1.6300 c3        1 MOL     -0.106459
     46 C16        -1.3330   -1.5560   -1.0060 c         1 MOL      0.649043
     47 O7         -0.8680   -0.8850   -0.0620 o         1 MOL     -0.662276
     48 O8         -0.8440   -2.6340   -1.3970 o         1 MOL     -0.662276
     49 H21        -2.8620   -2.8000    0.2810 hn        1 MOL      0.371002
     50 H22        -4.8550   -1.3090   -1.3530 h1        1 MOL      0.102093
     51 H23        -2.6340   -0.0930   -1.9170 hc        1 MOL      0.010617
     52 H24        -2.7520   -1.7540   -2.5240 hc        1 MOL      0.010617
     53 N5         -4.3330    1.0060   -0.1740 n         1 MOL     -0.203130
     54 C17        -4.3390    2.2250    0.7610 c3        1 MOL     -0.041282
     55 C18        -2.9700    2.9310    0.8170 c         1 MOL      0.610496
     56 O9         -1.8690    2.4350    0.5380 o         1 MOL     -0.606379
     57 H25        -4.6680    1.0930   -1.1180 hn        1 MOL      0.287712
     58 H26        -4.8190    1.9900    1.7030 h1        1 MOL      0.079159
     59 H27        -5.0480    2.8740    0.2380 h1        1 MOL      0.079159
     60 N6         -2.9410    4.2200    1.2740 n         1 MOL     -0.552590
     61 C19        -1.7960    5.0760    1.6280 c3        1 MOL      0.101926
     62 C20        -1.9690    6.6480    1.3990 c         1 MOL      0.573569
     63 O10        -3.0930    7.1240    1.2100 o         1 MOL     -0.533773
     64 C21        -1.4740    4.8150    3.1410 c3        1 MOL     -0.163917
     65 C22        -1.0060    3.4180    3.5400 c         1 MOL      0.642133
     66 O11        -0.1430    2.9060    2.8030 o         1 MOL     -0.637755
     67 O12        -1.5340    2.8740    4.4920 o         1 MOL     -0.637755
     68 H28        -3.8370    4.6000    1.5450 hn        1 MOL      0.307906
     69 H29        -0.9230    4.8190    1.0280 h1        1 MOL      0.014530
     70 H30        -2.3920    5.0010    3.7020 hc        1 MOL      0.052028
     71 H31        -0.7980    5.5100    3.6400 hc        1 MOL      0.052028
     72 N7         -0.9070    7.4510    1.3220 n         1 MOL     -0.578397
     73 C23         0.5610    7.0270    1.5900 c3        1 MOL      0.099346
     74 C24         1.2400    6.4560    0.3540 c         1 MOL      0.532558
     75 O13         0.8660    6.6860   -0.8290 o         1 MOL     -0.524898
     76 H32        -0.9530    8.3620    0.9040 hn        1 MOL      0.355645
     77 H33         0.6270    6.2200    2.3170 h1        1 MOL      0.045464
     78 H34         1.1380    7.8310    2.0660 h1        1 MOL      0.045464
     79 N8          2.2910    5.6980    0.5600 n         1 MOL     -0.550353
     80 C25         3.0200    4.8750   -0.4810 c3        1 MOL      0.039533
     81 C26         2.1090    3.7000   -0.9940 c         1 MOL      0.978776
     82 O14         1.5250    2.9770   -0.2130 o         1 MOL     -0.742596
     83 C27         4.4120    4.4130    0.0710 c3        1 MOL      0.188362
     84 C28         5.2320    3.4950   -0.7720 c3        1 MOL     -0.194285
     85 O15         4.2360    3.8360    1.3850 oh        1 MOL     -0.684334
     86 H35         2.7580    5.5510    1.4460 hn        1 MOL      0.332985
     87 H36         3.2280    5.3750   -1.4220 h1        1 MOL      0.039633
     88 H37         5.0040    5.3150    0.2220 h1        1 MOL      0.052554
     89 H38         5.0690    3.8220    1.8570 ho        1 MOL      0.444436
     90 H39         6.2610    3.6870   -0.4840 hc        1 MOL      0.060835
     91 H40         4.9610    2.4490   -0.6460 hc        1 MOL      0.060835
     92 H41         5.1410    3.8110   -1.8060 hc        1 MOL      0.060835
     93 N9          1.9460    3.4350   -2.2850 n         1 MOL     -0.769610
     94 C29         1.0360    2.5340   -2.9760 c3        1 MOL     -0.077243
     95 C30         1.3920    1.0920   -2.5280 c         1 MOL      0.790307
     96 O16         0.9590    0.6260   -1.4600 o         1 MOL     -0.534677
     97 C31        -0.4060    3.0130   -2.7030 c3        1 MOL     -0.000920
     98 C32        -0.6050    4.5390   -2.9170 c3        1 MOL      0.190735
     99 C33        -1.3670    2.2150   -3.5600 c3        1 MOL     -0.453662
    100 C34        -1.9080    5.1000   -2.2170 c3        1 MOL     -0.212878
    101 H42         2.4300    4.0270   -2.9370 hn        1 MOL      0.342822
    102 H43         1.3090    2.5980   -4.0290 h1        1 MOL      0.114666
    103 H44        -0.5540    2.8250   -1.6380 hc        1 MOL      0.151339
    104 H45        -0.5970    4.8400   -3.9610 hc        1 MOL     -0.031886
    105 H46         0.3000    5.0400   -2.5710 hc        1 MOL     -0.031886
    106 H47        -1.3290    2.5880   -4.5850 hc        1 MOL      0.109137
    107 H48        -1.2200    1.1360   -3.5440 hc        1 MOL      0.109137
    108 H49        -2.3350    2.3350   -3.0710 hc        1 MOL      0.109137
    109 H50        -1.7730    4.9600   -1.1460 hc        1 MOL      0.054182
    110 H51        -2.0520    6.1720   -2.3950 hc        1 MOL      0.054182
    111 H52        -2.8200    4.5640   -2.4780 hc        1 MOL      0.054182
    112 N10         2.1740    0.3470   -3.3240 n         1 MOL     -0.627264
    113 C35         2.4980   -1.1040   -3.1350 c3        1 MOL      0.068836
    114 C36         4.0690   -1.3660   -3.0930 c         1 MOL      0.569875
    115 O17         4.5830   -2.3990   -3.5000 o         1 MOL     -0.617168
    116 C37         1.6580   -1.9610   -4.0950 c3        1 MOL      0.508827
    117 C38         2.1150   -1.7830   -5.5240 c3        1 MOL     -0.275915
    118 O18         0.2850   -1.6950   -3.9270 oh        1 MOL     -0.618674
    119 H53         2.4300    0.7910   -4.1980 hn        1 MOL      0.284330
    120 H54         2.1730   -1.4110   -2.1390 h1        1 MOL     -0.088324
    121 H55         1.7340   -3.0400   -3.9790 h1        1 MOL     -0.010882
    122 H56         0.0360   -1.9670   -3.0360 ho        1 MOL      0.365329
    123 H57         2.0690   -0.7330   -5.7950 hc        1 MOL      0.058571
    124 H58         3.1650   -2.0420   -5.6890 hc        1 MOL      0.058571
    125 H59         1.4740   -2.3160   -6.2280 hc        1 MOL      0.058571
    126 N11         4.8060   -0.3780   -2.6270 n         1 MOL     -0.219589
    127 C39         6.2940   -0.4020   -2.6020 c3        1 MOL     -0.121861
    128 C40         6.8660   -1.0270   -1.3610 c         1 MOL      0.622366
    129 O19         7.4680   -0.3320   -0.5600 o         1 MOL     -0.510996
    130 C41         6.9000    0.9300   -2.8800 c3        1 MOL      0.346255
    131 C42         8.3950    0.9300   -3.2380 c3        1 MOL     -0.455874
    132 O20         6.2280    1.2630   -4.1630 oh        1 MOL     -0.687516
    133 H60         4.2530    0.3910   -2.2900 hn        1 MOL      0.245687
    134 H61         6.5640   -0.9860   -3.4820 h1        1 MOL      0.133544
    135 H62         6.7550    1.6960   -2.1080 h1        1 MOL      0.022927
    136 H63         6.8630    1.6880   -4.7500 ho        1 MOL      0.416037
    137 H64         8.6570    1.9860   -3.2790 hc        1 MOL      0.120652
    138 H65         8.9830    0.4850   -2.4290 hc        1 MOL      0.120652
    139 H66         8.6910    0.4080   -4.1480 hc        1 MOL      0.120652
    140 N12         6.3780   -2.2390   -1.1750 n         1 MOL     -0.887332
    141 C43         6.1470   -2.8900    0.1890 c3        1 MOL      0.525273
    142 C44         5.0900   -2.2230    1.0420 c         1 MOL      0.250276
    143 O21         4.7770   -1.0320    0.8910 o         1 MOL     -0.452319
    144 C45         7.5120   -2.9560    1.0440 c3        1 MOL     -0.524162
    145 C46         8.7620   -3.3250    0.2330 c3        1 MOL     -0.234490
    146 C47         9.9590   -3.1630    1.2030 c3        1 MOL     -0.258374
    147 C48        11.1700   -3.3980    0.3740 c3        1 MOL      0.242839
    148 N13        12.4080   -3.2200    1.1540 n4        1 MOL     -0.341672
    149 H67         5.9830   -2.6230   -2.0200 hn        1 MOL      0.424750
    150 H68         5.7010   -3.8700    0.0120 h1        1 MOL      0.019117
    151 H69         7.4250   -3.7520    1.7750 hc        1 MOL      0.169189
    152 H70         7.6720   -2.0250    1.5970 hc        1 MOL      0.169189
    153 H71         8.9270   -2.5250   -0.4840 hc        1 MOL      0.156360
    154 H72         8.7560   -4.3180   -0.2380 hc        1 MOL      0.156360
    155 H73         9.9120   -3.9710    1.9330 hc        1 MOL      0.138758
    156 H74         9.8970   -2.1310    1.5330 hc        1 MOL      0.138758
    157 H75        11.1420   -2.7420   -0.5000 hx        1 MOL      0.025201
    158 H76        11.1360   -4.3900   -0.0810 hx        1 MOL      0.025201
    159 H77        12.4860   -2.3060    1.5980 hn        1 MOL      0.254051
    160 H78        12.4260   -3.9600    1.8420 hn        1 MOL      0.254051
    161 H79        13.2390   -3.3090    0.5870 hn        1 MOL      0.254051
    162 N14         4.4530   -3.0480    1.8590 n         1 MOL     -0.207636
    163 C49         3.1760   -2.6670    2.5100 c3        1 MOL      0.006739
    164 C50         1.9180   -2.3980    1.5380 c         1 MOL      0.335729
    165 O22         1.0610   -1.6050    1.8520 o         1 MOL     -0.423096
    166 C51         2.7730   -3.6370    3.6380 c3        1 MOL      0.136836
    167 C52         3.9270   -3.8260    4.6310 c3        1 MOL     -0.166565
    168 C53         3.6780   -4.8370    5.6940 c         1 MOL      0.612596
    169 O23         2.6570   -4.6530    6.4810 o         1 MOL     -0.624859
    170 O24         4.4590   -5.8140    5.7840 o         1 MOL     -0.624859
    171 H80         4.9090   -3.9370    2.0500 hn        1 MOL      0.237357
    172 H81         3.3980   -1.6800    2.9250 h1        1 MOL      0.046936
    173 H82         2.5680   -4.6190    3.2010 hc        1 MOL      0.023584
    174 H83         1.8910   -3.3250    4.2000 hc        1 MOL      0.023584
    175 H84         4.0420   -2.8500    5.0890 hc        1 MOL     -0.000970
    176 H85         4.8880   -3.9730    4.1290 hc        1 MOL     -0.000970
    177 N15         1.9150   -2.9360    0.3140 n         1 MOL     -0.239337
    178 C54         2.2810   -4.3350   -0.0170 c3        1 MOL      0.016143
    179 H86         3.3280   -4.5060    0.2370 h1        1 MOL      0.017216
    180 H87         1.6530   -5.0200    0.5520 h1        1 MOL      0.017216
    181 H88         2.1340   -4.5070   -1.0840 h1        1 MOL      0.017216
    182 H89         1.1790   -2.5340   -0.2490 hn        1 MOL      0.291814
    183 Ca1         0.3930    1.0360    1.1210 Ca        1 MOL      1.734978
    184 O25         1.6770    0.6610    3.4660 oh        1 MOL     -0.838567
    185 H90         2.5730    0.6390    3.8130 ho        1 MOL      0.405057
    186 H91         1.1210    0.7750    4.2430 ho        1 MOL      0.405057
    187 O26         3.0070    0.8610    0.9460 oh        1 MOL     -0.838567
    188 H92         3.3080    1.1950    1.7900 ho        1 MOL      0.405057
    189 H93         3.6800    0.2360    0.6860 ho        1 MOL      0.405057
    190 O27        -1.6260    0.5410    2.8490 oh        1 MOL     -0.838567
    191 H94        -1.7030    1.4780    3.0220 ho        1 MOL      0.405057
    192 H95        -2.5270    0.2480    2.6960 ho        1 MOL      0.405057
@<TRIPOS>BOND
     1    1    2 1   
     2    1    4 1   
     3    1    5 1   
     4    1    6 1   
     5    2    3 2   
     6    2    7 1   
     7    7    8 1   
     8    7   15 1   
     9    8    9 1   
    10    8   11 1   
    11    8   16 1   
    12    9   10 2   
    13    9   19 1   
    14   11   12 1   
    15   11   17 1   
    16   11   18 1   
    17   12   13 1   
    18   12   14 1   
    19   19   20 1   
    20   19   28 1   
    21   20   21 1   
    22   20   23 1   
    23   20   29 1   
    24   21   22 2   
    25   21   41 1   
    26   23   24 1   
    27   23   30 1   
    28   23   31 1   
    29   24   25 1   
    30   24   32 1   
    31   24   33 1   
    32   25   26 1   
    33   25   34 1   
    34   25   35 1   
    35   26   27 1   
    36   26   36 1   
    37   26   37 1   
    38   27   38 1   
    39   27   39 1   
    40   27   40 1   
    41   41   42 1   
    42   41   49 1   
    43   42   43 1   
    44   42   45 1   
    45   42   50 1   
    46   43   44 2   
    47   43   53 1   
    48   45   46 1   
    49   45   51 1   
    50   45   52 1   
    51   46   47 1   
    52   46   48 1   
    53   53   54 1   
    54   53   57 1   
    55   54   55 1   
    56   54   58 1   
    57   54   59 1   
    58   55   56 2   
    59   55   60 1   
    60   60   61 1   
    61   60   68 1   
    62   61   62 1   
    63   61   64 1   
    64   61   69 1   
    65   62   63 2   
    66   62   72 1   
    67   64   65 1   
    68   64   70 1   
    69   64   71 1   
    70   65   66 1   
    71   65   67 1   
    72   72   73 1   
    73   72   76 1   
    74   73   74 1   
    75   73   77 1   
    76   73   78 1   
    77   74   75 2   
    78   74   79 1   
    79   79   80 1   
    80   79   86 1   
    81   80   81 1   
    82   80   83 1   
    83   80   87 1   
    84   81   82 2   
    85   81   93 1   
    86   83   84 1   
    87   83   85 1   
    88   83   88 1   
    89   84   90 1   
    90   84   91 1   
    91   84   92 1   
    92   85   89 1   
    93   93   94 1   
    94   93  101 1   
    95   94   95 1   
    96   94   97 1   
    97   94  102 1   
    98   95   96 2   
    99   95  112 1   
   100   97   98 1   
   101   97   99 1   
   102   97  103 1   
   103   98  100 1   
   104   98  104 1   
   105   98  105 1   
   106   99  106 1   
   107   99  107 1   
   108   99  108 1   
   109  100  109 1   
   110  100  110 1   
   111  100  111 1   
   112  112  113 1   
   113  112  119 1   
   114  113  114 1   
   115  113  116 1   
   116  113  120 1   
   117  114  115 2   
   118  114  126 1   
   119  116  117 1   
   120  116  118 1   
   121  116  121 1   
   122  117  123 1   
   123  117  124 1   
   124  117  125 1   
   125  118  122 1   
   126  126  127 1   
   127  126  133 1   
   128  127  128 1   
   129  127  130 1   
   130  127  134 1   
   131  128  129 2   
   132  128  140 1   
   133  130  131 1   
   134  130  132 1   
   135  130  135 1   
   136  131  137 1   
   137  131  138 1   
   138  131  139 1   
   139  132  136 1   
   140  140  141 1   
   141  140  149 1   
   142  141  142 1   
   143  141  144 1   
   144  141  150 1   
   145  142  143 2   
   146  142  162 1   
   147  144  145 1   
   148  144  151 1   
   149  144  152 1   
   150  145  146 1   
   151  145  153 1   
   152  145  154 1   
   153  146  147 1   
   154  146  155 1   
   155  146  156 1   
   156  147  148 1   
   157  147  157 1   
   158  147  158 1   
   159  148  159 1   
   160  148  160 1   
   161  148  161 1   
   162  162  163 1   
   163  162  171 1   
   164  163  164 1   
   165  163  166 1   
   166  163  172 1   
   167  164  165 2   
   168  164  177 1   
   169  166  167 1   
   170  166  173 1   
   171  166  174 1   
   172  167  168 1   
   173  167  175 1   
   174  167  176 1   
   175  168  169 1   
   176  168  170 1   
   177  177  178 1   
   178  177  182 1   
   179  178  179 1   
   180  178  180 1   
   181  178  181 1   
   182  184  185 1   
   183  184  186 1   
   184  187  188 1   
   185  187  189 1   
   186  190  191 1   
   187  190  192 1   
@<TRIPOS>SUBSTRUCTURE
     1 MOL         1 TEMP              0 ****  ****    0 ROOT
