@<TRIPOS>MOLECULE
MOL
  181   177     1     0     0
SMALL
resp


@<TRIPOS>ATOM
      1 C1          1.9690    7.0320   -1.5040 c3        1 MOL     -0.364195
      2 C2          3.3770    6.8360   -0.9210 c         1 MOL      0.718369
      3 O1          3.5990    7.2320    0.2110 o         1 MOL     -0.594182
      4 H1          1.5240    6.0580   -1.7110 hc        1 MOL      0.087263
      5 H2          1.3490    7.5690   -0.7860 hc        1 MOL      0.087263
      6 H3          2.0350    7.6050   -2.4290 hc        1 MOL      0.087263
      7 N1          4.2980    6.1700   -1.6470 n         1 MOL     -0.661009
      8 C3          5.6270    5.7280   -1.1100 c3        1 MOL      0.338884
      9 C4          5.5820    4.4020   -0.3020 c         1 MOL      0.552699
     10 O2          5.3300    3.3400   -0.9110 o         1 MOL     -0.576087
     11 C5          6.6860    5.7370   -2.1900 c3        1 MOL     -0.344136
     12 C6          8.0970    5.5930   -1.5450 c         1 MOL      0.728505
     13 O3          8.3270    6.2090   -0.4870 o         1 MOL     -0.729648
     14 O4          8.9940    4.8710   -2.0650 o         1 MOL     -0.729648
     15 H4          4.0440    5.8280   -2.5630 hn        1 MOL      0.320173
     16 H5          5.8970    6.4600   -0.3460 h1        1 MOL     -0.017536
     17 H6          6.6330    6.6640   -2.7550 hc        1 MOL      0.048873
     18 H7          6.4750    4.9520   -2.9100 hc        1 MOL      0.048873
     19 N2          5.6600    4.5280    0.9990 n         1 MOL     -0.552336
     20 C7          5.4260    3.5110    2.0080 c3        1 MOL      0.413529
     21 C8          4.0090    2.8950    2.0260 c         1 MOL      0.428865
     22 O5          3.0380    3.4040    1.4410 o         1 MOL     -0.514805
     23 C9          5.8730    4.0580    3.3840 c3        1 MOL     -0.509770
     24 H8          5.7970    5.4850    1.3030 hn        1 MOL      0.306862
     25 H9          6.1410    2.7240    1.7580 h1        1 MOL      0.063216
     26 H10         5.3620    4.9920    3.6060 hc        1 MOL      0.132572
     27 H11         5.5470    3.3920    4.1850 hc        1 MOL      0.132572
     28 H12         6.9610    4.1230    3.3340 hc        1 MOL      0.132572
     29 N3          3.7890    1.7540    2.6400 n         1 MOL     -0.404463
     30 C10         4.7230    0.7340    3.1180 c3        1 MOL     -0.141275
     31 C11         5.2210   -0.2620    2.1190 c         1 MOL      0.557053
     32 O6          4.5710   -0.5160    1.0880 o         1 MOL     -0.468676
     33 C12         4.0370    0.0310    4.3190 c3        1 MOL     -0.273422
     34 C13         2.9310   -0.9030    4.0480 c         1 MOL      0.862599
     35 O7          1.9890   -0.5910    3.3220 o         1 MOL     -0.739930
     36 O8          3.0780   -1.9830    4.6350 o         1 MOL     -0.739930
     37 H13         2.8850    1.3980    2.3740 hn        1 MOL      0.289170
     38 H14         5.5510    1.2700    3.5780 h1        1 MOL      0.090778
     39 H15         3.5950    0.7430    5.0160 hc        1 MOL      0.083067
     40 H16         4.8290   -0.4630    4.8810 hc        1 MOL      0.083067
     41 N4          6.2780   -0.9430    2.4410 n         1 MOL     -0.506091
     42 C14         6.8720   -2.0300    1.6380 c3        1 MOL      0.132785
     43 C15         8.0090   -1.5370    0.7420 c         1 MOL      0.639917
     44 O9          8.6740   -0.6020    1.1240 o         1 MOL     -0.526681
     45 H17         6.6390   -0.8110    3.3670 hn        1 MOL      0.331802
     46 H18         6.1150   -2.5750    1.0630 h1        1 MOL      0.005373
     47 H19         7.3190   -2.7500    2.3270 h1        1 MOL      0.005373
     48 N5          8.3570   -2.0600   -0.4680 n         1 MOL     -0.725270
     49 C16         7.4140   -2.8640   -1.2240 c3        1 MOL      0.249602
     50 C17         6.2350   -2.0220   -1.6990 c         1 MOL      0.467974
     51 O10         6.3980   -0.8140   -1.7690 o         1 MOL     -0.430820
     52 C18         8.1450   -3.4660   -2.4500 c3        1 MOL     -0.207067
     53 C19         9.3390   -4.3740   -2.1160 c         1 MOL      0.657228
     54 N6          9.2660   -5.5710   -2.5720 n         1 MOL     -0.764168
     55 O11        10.3470   -3.9270   -1.6210 o         1 MOL     -0.559529
     56 H20         9.1190   -1.6360   -0.9720 hn        1 MOL      0.414733
     57 H21         7.0540   -3.7410   -0.6840 h1        1 MOL     -0.023803
     58 H22         8.4380   -2.5970   -3.0400 hc        1 MOL      0.067220
     59 H23         7.4170   -4.0540   -3.0070 hc        1 MOL      0.067220
     60 H24         8.5130   -6.0270   -3.0520 hn        1 MOL      0.354299
     61 H25        10.1030   -6.0960   -2.3630 hn        1 MOL      0.354299
     62 N7          5.1690   -2.6530   -2.0960 n         1 MOL     -0.315395
     63 C20         4.0860   -2.0510   -2.9100 c3        1 MOL     -0.328169
     64 C21         2.7960   -2.8880   -3.0400 c         1 MOL      0.663039
     65 O12         2.6730   -3.6780   -3.9740 o         1 MOL     -0.578119
     66 H26         5.1690   -3.6550   -1.9810 hn        1 MOL      0.244467
     67 H27         4.4680   -1.7900   -3.9010 h1        1 MOL      0.149971
     68 H28         3.8330   -1.1460   -2.3570 h1        1 MOL      0.149971
     69 N8          1.8920   -2.8480   -2.0860 n         1 MOL     -0.406576
     70 C22         0.6270   -3.6200   -2.1540 c3        1 MOL     -0.294960
     71 C23        -0.6730   -2.8190   -1.8480 c         1 MOL      0.956040
     72 O13        -0.5870   -1.8670   -1.0710 o         1 MOL     -0.728672
     73 C24         0.5570   -4.7470   -1.1470 c3        1 MOL      0.716150
     74 C25         1.7230   -5.7150   -1.3270 c3        1 MOL     -0.554956
     75 O14         0.7120   -4.2260    0.1970 oh        1 MOL     -0.888295
     76 H29         2.1130   -2.2090   -1.3340 hn        1 MOL      0.267846
     77 H30         0.4820   -3.9940   -3.1600 h1        1 MOL      0.117670
     78 H31        -0.3970   -5.2360   -1.3000 h1        1 MOL     -0.045170
     79 H32         0.3540   -4.8720    0.8040 ho        1 MOL      0.469064
     80 H33         2.1480   -5.6090   -2.3230 hc        1 MOL      0.127847
     81 H34         2.4980   -5.4750   -0.5950 hc        1 MOL      0.127847
     82 H35         1.4300   -6.7090   -0.9930 hc        1 MOL      0.127847
     83 N9         -1.7940   -3.2590   -2.4680 n         1 MOL     -0.783893
     84 C26        -3.1070   -2.7340   -2.0520 c3        1 MOL     -0.010467
     85 C27        -3.4940   -3.4210   -0.6980 c         1 MOL      0.454707
     86 O15        -3.5530   -4.6210   -0.5170 o         1 MOL     -0.505466
     87 C28        -4.1460   -3.1140   -3.1020 c3        1 MOL      0.323581
     88 C29        -5.4910   -2.4540   -2.8750 c3        1 MOL     -0.373319
     89 C30        -3.6810   -2.8110   -4.5180 c3        1 MOL     -0.263779
     90 C31        -5.6650   -0.8950   -2.9880 c3        1 MOL     -0.379536
     91 H36        -1.9100   -4.0200   -3.1270 hn        1 MOL      0.367285
     92 H37        -2.8730   -1.6770   -1.9020 h1        1 MOL      0.220397
     93 H38        -4.2750   -4.1950   -3.0280 hc        1 MOL     -0.042803
     94 H39        -5.8020   -2.7240   -1.8780 hc        1 MOL      0.105939
     95 H40        -6.1750   -2.8260   -3.6420 hc        1 MOL      0.105939
     96 H41        -4.5190   -2.9040   -5.2050 hc        1 MOL      0.064796
     97 H42        -3.2990   -1.7910   -4.5010 hc        1 MOL      0.064796
     98 H43        -2.9030   -3.4820   -4.8760 hc        1 MOL      0.064796
     99 H44        -6.7280   -0.7280   -3.1060 hc        1 MOL      0.108290
    100 H45        -5.2670   -0.3650   -2.1160 hc        1 MOL      0.108290
    101 H46        -5.2590   -0.4960   -3.9100 hc        1 MOL      0.108290
    102 N10        -3.8020   -2.5480    0.2670 n         1 MOL     -0.170852
    103 C32        -4.4890   -2.8760    1.4900 c3        1 MOL      0.056220
    104 C33        -5.7870   -2.0780    1.6910 c         1 MOL      0.414146
    105 O16        -6.5050   -2.3810    2.6390 o         1 MOL     -0.534925
    106 C34        -3.6120   -2.8870    2.7460 c3        1 MOL     -0.328217
    107 C35        -2.4470   -3.8780    2.5460 c         1 MOL      0.778992
    108 O17        -2.5820   -5.1100    2.7520 o         1 MOL     -0.720029
    109 O18        -1.4290   -3.3820    2.0690 o         1 MOL     -0.720029
    110 H47        -3.4560   -1.6030    0.1110 hn        1 MOL     -0.061388
    111 H48        -4.8000   -3.9150    1.3680 h1        1 MOL      0.087525
    112 H49        -4.1910   -3.1040    3.6470 hc        1 MOL      0.098485
    113 H50        -3.3180   -1.8450    2.8330 hc        1 MOL      0.098485
    114 N11        -6.0940   -1.1720    0.7610 n         1 MOL     -0.584513
    115 C36        -7.2710   -0.2250    0.8590 c3        1 MOL      0.543020
    116 C37        -6.7790    1.2610    0.6150 c         1 MOL      0.073188
    117 O19        -7.1440    1.8950   -0.3940 o         1 MOL     -0.392152
    118 C38        -8.3150   -0.6950   -0.1640 c3        1 MOL     -0.229292
    119 C39        -9.7190   -0.2110   -0.1120 ca        1 MOL      0.081180
    120 C40       -10.3510    0.3370    1.0810 ca        1 MOL     -0.147661
    121 C41       -10.3920   -0.0310   -1.3760 ca        1 MOL     -0.147661
    122 C42       -11.6190    0.9130    1.0170 ca        1 MOL     -0.150368
    123 C43       -11.7270    0.4580   -1.3800 ca        1 MOL     -0.150368
    124 C44       -12.3160    0.9070   -0.1810 ca        1 MOL     -0.078733
    125 H51        -5.5320   -1.0150   -0.0690 hn        1 MOL      0.583481
    126 H52        -7.7340   -0.2520    1.8400 h1        1 MOL     -0.051836
    127 H53        -8.3570   -1.7550    0.0980 hc        1 MOL      0.049454
    128 H54        -8.0340   -0.5360   -1.1990 hc        1 MOL      0.049454
    129 H55        -9.8450    0.3840    2.0380 ha        1 MOL      0.129786
    130 H56        -9.8810   -0.2630   -2.3020 ha        1 MOL      0.129786
    131 H57       -11.9380    1.3110    1.9700 ha        1 MOL      0.113232
    132 H58       -12.1990    0.6440   -2.3360 ha        1 MOL      0.113232
    133 H59       -13.3420    1.2390   -0.1230 ha        1 MOL      0.081307
    134 N12        -6.0160    1.8790    1.5670 n         1 MOL     -0.094547
    135 C45        -5.6140    3.3190    1.6150 c3        1 MOL      0.079503
    136 C46        -5.0280    3.8950    0.3680 c         1 MOL      0.206963
    137 O20        -5.2160    5.0800    0.0770 o         1 MOL     -0.477037
    138 C47        -4.5280    3.2560    2.6750 c3        1 MOL      0.070016
    139 C48        -4.9510    2.2000    3.7080 c3        1 MOL     -0.297969
    140 C49        -5.6480    1.2180    2.8870 c3        1 MOL      0.068450
    141 H60        -6.3830    3.9750    2.0060 h1        1 MOL      0.048071
    142 H61        -3.6320    2.8950    2.1630 hc        1 MOL      0.024119
    143 H62        -4.3310    4.2660    3.0380 hc        1 MOL      0.024119
    144 H63        -4.0430    1.8640    4.2020 hc        1 MOL      0.097839
    145 H64        -5.7220    2.6820    4.3040 hc        1 MOL      0.097839
    146 H65        -5.0240    0.3600    2.6480 h1        1 MOL      0.054532
    147 H66        -6.5530    0.8200    3.3670 h1        1 MOL      0.054532
    148 N13        -4.3460    3.0450   -0.4720 n         1 MOL     -0.014782
    149 C50        -3.6950    3.3310   -1.7360 c3        1 MOL     -0.226268
    150 C51        -4.7020    3.7120   -2.8650 c         1 MOL      0.484530
    151 O21        -4.4130    4.6680   -3.6500 o         1 MOL     -0.537487
    152 C52        -2.7880    2.1730   -2.1450 c3        1 MOL      0.183162
    153 C53        -1.8220    1.6520   -1.0030 c3        1 MOL     -0.359519
    154 C54        -2.3770    0.6180   -0.0370 c         1 MOL      0.796784
    155 O22        -1.5070    0.1560    0.7620 o         1 MOL     -0.663790
    156 O23        -3.6110    0.3840    0.0170 o         1 MOL     -0.663790
    157 H67        -4.2570    2.1360   -0.0230 hn        1 MOL      0.165192
    158 H68        -3.1320    4.2460   -1.5420 h1        1 MOL      0.123758
    159 H69        -2.2160    2.4990   -3.0190 hc        1 MOL     -0.041683
    160 H70        -3.5070    1.4100   -2.4340 hc        1 MOL     -0.041683
    161 H71        -1.4460    2.5330   -0.4820 hc        1 MOL      0.094669
    162 H72        -1.0520    1.0680   -1.5100 hc        1 MOL      0.094669
    163 N14        -5.9510    3.1060   -2.8670 n         1 MOL     -0.203883
    164 C55        -7.0600    3.5240   -3.7720 c3        1 MOL     -0.235565
    165 H73        -7.5610    2.6380   -4.1640 h1        1 MOL      0.099406
    166 H74        -7.7750    4.1300   -3.2160 h1        1 MOL      0.099406
    167 H75        -6.6540    4.1060   -4.5990 h1        1 MOL      0.099406
    168 H76        -6.1700    2.3930   -2.1860 hn        1 MOL      0.183347
    169 Ca1         0.4690   -1.6380    1.4190 Ca        1 MOL      1.807316
    170 O24         1.4930   -3.5640    3.2860 oh        1 MOL     -0.828229
    171 H77         2.1370   -4.1100    2.8190 ho        1 MOL      0.393452
    172 H78         2.0300   -3.0060    3.8570 ho        1 MOL      0.393452
    173 O25         2.8350   -2.4550    0.6800 oh        1 MOL     -0.828229
    174 H79         3.4720   -1.7490    0.7770 ho        1 MOL      0.393452
    175 H80         3.3520   -3.2580    0.6900 ho        1 MOL      0.393452
    176 O26         0.9630    0.9660    0.8620 oh        1 MOL     -0.828229
    177 H81         1.6870    1.2210    0.2810 ho        1 MOL      0.393452
    178 H82         0.2370    1.5360    0.6100 ho        1 MOL      0.393452
    179 O27        -0.7830   -1.7820    4.2450 oh        1 MOL     -0.828229
    180 H83        -0.8350   -1.1390    4.9430 ho        1 MOL      0.393452
    181 H84        -0.6530   -2.6250    4.6910 ho        1 MOL      0.393452
@<TRIPOS>BOND
     1    1    2 1   
     2    1    4 1   
     3    1    5 1   
     4    1    6 1   
     5    2    3 2   
     6    2    7 1   
     7    7    8 1   
     8    7   15 1   
     9    8    9 1   
    10    8   11 1   
    11    8   16 1   
    12    9   10 2   
    13    9   19 1   
    14   11   12 1   
    15   11   17 1   
    16   11   18 1   
    17   12   13 1   
    18   12   14 1   
    19   19   20 1   
    20   19   24 1   
    21   20   21 1   
    22   20   23 1   
    23   20   25 1   
    24   21   22 2   
    25   21   29 1   
    26   23   26 1   
    27   23   27 1   
    28   23   28 1   
    29   29   30 1   
    30   29   37 1   
    31   30   31 1   
    32   30   33 1   
    33   30   38 1   
    34   31   32 2   
    35   31   41 1   
    36   33   34 1   
    37   33   39 1   
    38   33   40 1   
    39   34   35 1   
    40   34   36 1   
    41   41   42 1   
    42   41   45 1   
    43   42   43 1   
    44   42   46 1   
    45   42   47 1   
    46   43   44 2   
    47   43   48 1   
    48   48   49 1   
    49   48   56 1   
    50   49   50 1   
    51   49   52 1   
    52   49   57 1   
    53   50   51 2   
    54   50   62 1   
    55   52   53 1   
    56   52   58 1   
    57   52   59 1   
    58   53   54 1   
    59   53   55 2   
    60   54   60 1   
    61   54   61 1   
    62   62   63 1   
    63   62   66 1   
    64   63   64 1   
    65   63   67 1   
    66   63   68 1   
    67   64   65 2   
    68   64   69 1   
    69   69   70 1   
    70   69   76 1   
    71   70   71 1   
    72   70   73 1   
    73   70   77 1   
    74   71   72 2   
    75   71   83 1   
    76   73   74 1   
    77   73   75 1   
    78   73   78 1   
    79   74   80 1   
    80   74   81 1   
    81   74   82 1   
    82   75   79 1   
    83   83   84 1   
    84   83   91 1   
    85   84   85 1   
    86   84   87 1   
    87   84   92 1   
    88   85   86 2   
    89   85  102 1   
    90   87   88 1   
    91   87   89 1   
    92   87   93 1   
    93   88   90 1   
    94   88   94 1   
    95   88   95 1   
    96   89   96 1   
    97   89   97 1   
    98   89   98 1   
    99   90   99 1   
   100   90  100 1   
   101   90  101 1   
   102  102  103 1   
   103  102  110 1   
   104  103  104 1   
   105  103  106 1   
   106  103  111 1   
   107  104  105 2   
   108  104  114 1   
   109  106  107 1   
   110  106  112 1   
   111  106  113 1   
   112  107  108 1   
   113  107  109 1   
   114  114  115 1   
   115  114  125 1   
   116  115  116 1   
   117  115  118 1   
   118  115  126 1   
   119  116  117 2   
   120  116  134 1   
   121  118  119 1   
   122  118  127 1   
   123  118  128 1   
   124  119  120 ar  
   125  119  121 ar  
   126  120  122 ar  
   127  120  129 1   
   128  121  123 ar  
   129  121  130 1   
   130  122  124 ar  
   131  122  131 1   
   132  123  124 ar  
   133  123  132 1   
   134  124  133 1   
   135  134  135 1   
   136  134  140 1   
   137  135  136 1   
   138  135  138 1   
   139  135  141 1   
   140  136  137 2   
   141  136  148 1   
   142  138  139 1   
   143  138  142 1   
   144  138  143 1   
   145  139  140 1   
   146  139  144 1   
   147  139  145 1   
   148  140  146 1   
   149  140  147 1   
   150  148  149 1   
   151  148  157 1   
   152  149  150 1   
   153  149  152 1   
   154  149  158 1   
   155  150  151 2   
   156  150  163 1   
   157  152  153 1   
   158  152  159 1   
   159  152  160 1   
   160  153  154 1   
   161  153  161 1   
   162  153  162 1   
   163  154  155 1   
   164  154  156 1   
   165  163  164 1   
   166  163  168 1   
   167  164  165 1   
   168  164  166 1   
   169  164  167 1   
   170  170  171 1   
   171  170  172 1   
   172  173  174 1   
   173  173  175 1   
   174  176  177 1   
   175  176  178 1   
   176  179  180 1   
   177  179  181 1   
@<TRIPOS>SUBSTRUCTURE
     1 MOL         1 TEMP              0 ****  ****    0 ROOT
