@<TRIPOS>MOLECULE
MOL
  178   175     1     0     0
SMALL
resp


@<TRIPOS>ATOM
      1 C1         -1.1510    6.7760    1.1600 c3        1 MOL     -0.407613
      2 C2         -2.5300    6.4190    0.6180 c         1 MOL      0.709549
      3 O1         -2.8270    6.6190   -0.5560 o         1 MOL     -0.599989
      4 H1         -0.5440    7.1950    0.3570 hc        1 MOL      0.097402
      5 H2         -1.2530    7.5090    1.9590 hc        1 MOL      0.097402
      6 H3         -0.6690    5.8780    1.5490 hc        1 MOL      0.097402
      7 N1         -3.4220    5.9870    1.5020 n         1 MOL     -0.590069
      8 C3         -4.7290    5.3770    1.1760 c3        1 MOL      0.122528
      9 C4         -4.5680    4.2230    0.1430 c         1 MOL      0.710372
     10 O2         -3.9270    3.1920    0.4440 o         1 MOL     -0.581724
     11 C5         -5.3790    4.9780    2.4740 c3        1 MOL     -0.188451
     12 C6         -6.6900    4.2540    2.3270 c         1 MOL      0.750890
     13 O3         -7.2040    4.2020    1.2100 o         1 MOL     -0.743729
     14 O4         -7.1670    3.6800    3.3280 o         1 MOL     -0.743729
     15 H4         -3.1050    6.0150    2.4610 hn        1 MOL      0.296695
     16 H5         -5.3370    6.2100    0.8150 h1        1 MOL      0.052014
     17 H6         -5.6340    5.8330    3.0990 hc        1 MOL      0.020029
     18 H7         -4.7850    4.3380    3.1200 hc        1 MOL      0.020029
     19 N2         -5.2210    4.2420   -1.0870 n         1 MOL     -0.670793
     20 C7         -5.3970    3.1030   -2.0080 c3        1 MOL      0.582405
     21 C8         -4.0910    2.8650   -2.8550 c         1 MOL      0.330306
     22 O5         -3.2230    3.7160   -2.9300 o         1 MOL     -0.509062
     23 C9         -6.7050    3.3480   -2.8200 c3        1 MOL     -0.368819
     24 H8         -5.8010    5.0390   -1.2820 hn        1 MOL      0.280612
     25 H9         -5.4920    2.2070   -1.4060 h1        1 MOL      0.056151
     26 H10        -6.8300    2.4970   -3.4910 hc        1 MOL      0.080749
     27 H11        -7.5690    3.5720   -2.1910 hc        1 MOL      0.080749
     28 H12        -6.4560    4.2160   -3.4320 hc        1 MOL      0.080749
     29 N3         -3.8600    1.7080   -3.5150 n         1 MOL     -0.403172
     30 C10        -4.6800    0.4870   -3.7100 c3        1 MOL      0.117236
     31 C11        -5.2130   -0.1450   -2.3970 c         1 MOL      0.221669
     32 O6         -4.6330   -0.0280   -1.2950 o         1 MOL     -0.353070
     33 C12        -3.8570   -0.5290   -4.4350 c3        1 MOL     -0.342984
     34 C13        -2.4390   -0.6620   -3.9730 c         1 MOL      0.934038
     35 O7         -1.6120    0.2560   -4.2790 o         1 MOL     -0.821306
     36 O8         -2.0890   -1.6070   -3.2210 o         1 MOL     -0.821306
     37 H13        -2.9730    1.7890   -3.9940 hn        1 MOL      0.307323
     38 H14        -5.4780    0.7470   -4.4110 h1        1 MOL      0.066623
     39 H15        -3.8280   -0.3380   -5.5130 hc        1 MOL      0.090131
     40 H16        -4.2010   -1.5090   -4.1330 hc        1 MOL      0.090131
     41 N4         -6.4100   -0.8820   -2.4750 n         1 MOL     -0.429352
     42 C14        -6.9870   -1.6860   -1.3790 c3        1 MOL      0.055845
     43 C15        -7.8410   -0.8640   -0.3400 c         1 MOL      0.349331
     44 O9         -7.9830    0.3460   -0.4750 o         1 MOL     -0.459169
     45 H17        -6.9330   -1.0100   -3.3260 hn        1 MOL      0.298320
     46 H18        -6.2050   -2.2270   -0.8570 h1        1 MOL      0.065522
     47 H19        -7.5410   -2.5360   -1.7830 h1        1 MOL      0.065522
     48 N5         -8.0510   -1.4360    0.8450 n         1 MOL     -0.297266
     49 C16        -7.8680   -2.8660    1.2300 c3        1 MOL     -0.195964
     50 C17        -6.5070   -3.1270    1.9410 c         1 MOL      0.610469
     51 O10        -6.2490   -4.2590    2.3310 o         1 MOL     -0.531406
     52 C18        -9.1290   -3.4180    1.9970 c3        1 MOL     -0.140103
     53 C19        -9.5200   -2.7320    3.3430 c         1 MOL      0.672546
     54 N6        -10.7260   -2.8680    3.9140 n         1 MOL     -0.835933
     55 O11        -8.6240   -2.1910    3.9140 o         1 MOL     -0.514420
     56 H20        -8.3880   -0.8590    1.5920 hn        1 MOL      0.283798
     57 H21        -7.8620   -3.4510    0.3040 h1        1 MOL      0.130090
     58 H22        -8.9090   -4.4740    2.2090 hc        1 MOL      0.049927
     59 H23        -9.9960   -3.4110    1.3370 hc        1 MOL      0.049927
     60 H24       -11.4290   -3.3930    3.4230 hn        1 MOL      0.379356
     61 H25       -10.6990   -2.4690    4.8480 hn        1 MOL      0.379356
     62 N7         -5.6910   -2.1330    2.2700 n         1 MOL     -0.431310
     63 C20        -4.3270   -2.1870    2.8650 c3        1 MOL      0.076145
     64 C21        -3.2320   -3.0460    2.2030 c         1 MOL      0.491498
     65 O12        -2.6600   -3.8140    2.9170 o         1 MOL     -0.563525
     66 H26        -5.9460   -1.2390    1.8660 hn        1 MOL      0.310803
     67 H27        -4.3220   -2.3520    3.9500 h1        1 MOL      0.048804
     68 H28        -3.9570   -1.1670    2.8320 h1        1 MOL      0.048804
     69 N8         -2.9990   -2.8980    0.8940 n         1 MOL     -0.197347
     70 C22        -2.0090   -3.7210    0.1820 c3        1 MOL     -0.006161
     71 C23        -0.6240   -3.0680    0.1270 c         1 MOL      0.402904
     72 O13        -0.4820   -2.0080   -0.4390 o         1 MOL     -0.647355
     73 C24        -2.4560   -4.0410   -1.2370 c3        1 MOL      0.133991
     74 C25        -3.2760   -5.4090   -1.1600 c3        1 MOL     -0.370690
     75 O14        -3.4250   -3.1440   -1.7090 oh        1 MOL     -0.550547
     76 H29        -3.5710   -2.2880    0.3340 hn        1 MOL      0.147032
     77 H30        -1.9630   -4.6610    0.7230 h1        1 MOL      0.082373
     78 H31        -1.6130   -4.0830   -1.9200 h1        1 MOL      0.116541
     79 H32        -2.9010   -2.5890   -2.2960 ho        1 MOL      0.490156
     80 H33        -2.5500   -6.1940   -0.9370 hc        1 MOL      0.087378
     81 H34        -4.1070   -5.3400   -0.4690 hc        1 MOL      0.087378
     82 H35        -3.7000   -5.6120   -2.1420 hc        1 MOL      0.087378
     83 N9          0.3290   -3.7130    0.7290 n         1 MOL     -0.197034
     84 C26         1.7530   -3.1560    0.9650 c3        1 MOL      0.062121
     85 C27         2.7700   -3.5670   -0.1200 c         1 MOL      0.213594
     86 O15         3.0690   -4.6840   -0.3560 o         1 MOL     -0.488476
     87 C28         2.2020   -3.4460    2.4350 c3        1 MOL      0.186369
     88 C29         3.3300   -2.4600    2.7170 c3        1 MOL      0.225707
     89 C30         1.1600   -3.2110    3.5510 c3        1 MOL     -0.409677
     90 C31         4.1120   -2.4430    4.1480 c3        1 MOL     -0.185874
     91 H36         0.1520   -4.6310    1.1130 hn        1 MOL      0.211272
     92 H37         1.7860   -2.0740    0.8680 h1        1 MOL      0.111683
     93 H38         2.5460   -4.4810    2.4680 hc        1 MOL     -0.037447
     94 H39         2.9390   -1.4720    2.4860 hc        1 MOL     -0.092020
     95 H40         4.1070   -2.5460    1.9580 hc        1 MOL     -0.092020
     96 H41         1.6000   -3.5540    4.4860 hc        1 MOL      0.102503
     97 H42         0.9380   -2.1510    3.4300 hc        1 MOL      0.102503
     98 H43         0.2920   -3.8340    3.3220 hc        1 MOL      0.102503
     99 H44         4.6140   -3.4170    4.2660 hc        1 MOL      0.022010
    100 H45         4.8490   -1.6400    4.1170 hc        1 MOL      0.022010
    101 H46         3.4280   -2.2290    4.9630 hc        1 MOL      0.022010
    102 N10         3.2300   -2.5040   -0.9030 n         1 MOL      0.194984
    103 C32         4.2010   -2.7460   -1.9360 c3        1 MOL     -0.087453
    104 C33         5.6370   -2.1910   -1.7200 c         1 MOL      0.567139
    105 O16         6.5000   -2.3370   -2.5440 o         1 MOL     -0.554936
    106 C34         3.5950   -2.3220   -3.2900 c3        1 MOL     -0.011153
    107 C35         2.1960   -2.6090   -3.4710 c         1 MOL      0.664933
    108 O17         1.8760   -3.7620   -3.8850 o         1 MOL     -0.704893
    109 O18         1.3080   -1.7900   -3.2400 o         1 MOL     -0.704893
    110 H47         2.9460   -1.5760   -0.6240 hn        1 MOL     -0.035776
    111 H48         4.3690   -3.8220   -1.9060 h1        1 MOL      0.085615
    112 H49         4.2060   -2.6950   -4.1240 hc        1 MOL     -0.017177
    113 H50         3.7210   -1.2430   -3.3110 hc        1 MOL     -0.017177
    114 N11         5.8780   -1.4710   -0.6050 n         1 MOL     -0.719886
    115 C36         7.1960   -0.7550   -0.4660 c3        1 MOL      0.496115
    116 C37         7.0800    0.6970    0.0260 c         1 MOL      0.154032
    117 O19         7.6010    1.0860    1.1040 o         1 MOL     -0.479361
    118 C38         8.1750   -1.5750    0.3170 c3        1 MOL     -0.193828
    119 C39         9.6830   -1.2010    0.3240 ca        1 MOL      0.241183
    120 C40        10.3780   -1.0800    1.5050 ca        1 MOL     -0.262766
    121 C41        10.3230   -1.1350   -0.8950 ca        1 MOL     -0.262766
    122 C42        11.6300   -0.5030    1.5060 ca        1 MOL     -0.042836
    123 C43        11.6160   -0.6710   -0.9010 ca        1 MOL     -0.042836
    124 C44        12.2690   -0.2940    0.2630 ca        1 MOL     -0.184762
    125 H51         5.1560   -1.1090   -0.0040 hn        1 MOL      0.366857
    126 H52         7.6730   -0.6170   -1.4350 h1        1 MOL     -0.019570
    127 H53         8.2100   -2.6520    0.1420 hc        1 MOL      0.053545
    128 H54         7.8570   -1.5210    1.3520 hc        1 MOL      0.053545
    129 H55         9.8620   -1.3100    2.4210 ha        1 MOL      0.139894
    130 H56         9.8220   -1.4400   -1.8020 ha        1 MOL      0.139894
    131 H57        12.2450   -0.4570    2.3910 ha        1 MOL      0.083536
    132 H58        12.1280   -0.6200   -1.8590 ha        1 MOL      0.083536
    133 H59        13.3120   -0.0300    0.2100 ha        1 MOL      0.099523
    134 N12         6.4820    1.5900   -0.8090 n         1 MOL      0.009780
    135 C45         6.2470    2.9980   -0.5020 c3        1 MOL     -0.009930
    136 C46         5.5770    3.3920    0.8130 c         1 MOL      0.316333
    137 O20         5.6450    4.4910    1.2950 o         1 MOL     -0.494357
    138 C47         5.3520    3.5830   -1.6420 c3        1 MOL     -0.090595
    139 C48         5.6400    2.6610   -2.8070 c3        1 MOL      0.007848
    140 C49         5.8980    1.3230   -2.0890 c3        1 MOL     -0.169326
    141 H60         7.2640    3.3900   -0.5620 h1        1 MOL      0.071016
    142 H61         4.3250    3.4290   -1.3260 hc        1 MOL      0.053961
    143 H62         5.5950    4.6290   -1.8180 hc        1 MOL      0.053961
    144 H63         4.8970    2.6490   -3.6060 hc        1 MOL      0.012254
    145 H64         6.6150    2.8350   -3.2480 hc        1 MOL      0.012254
    146 H65         4.9800    0.7590   -1.9490 h1        1 MOL      0.101275
    147 H66         6.5500    0.7670   -2.7560 h1        1 MOL      0.101275
    148 N13         4.8590    2.4170    1.3560 n         1 MOL     -0.020752
    149 C50         4.3380    2.4960    2.6870 c3        1 MOL     -0.301505
    150 C51         5.4530    2.4240    3.7560 c         1 MOL      0.683711
    151 O21         5.5210    3.3360    4.5270 o         1 MOL     -0.563767
    152 C52         3.2640    1.4330    2.8720 c3        1 MOL     -0.072070
    153 C53         2.1660    1.3750    1.8390 c3        1 MOL      0.001614
    154 C54         2.4680    0.5590    0.5840 c         1 MOL      0.466028
    155 O22         1.5740    0.4080   -0.2320 o         1 MOL     -0.608092
    156 O23         3.5560   -0.1070    0.5410 o         1 MOL     -0.608092
    157 H67         4.7950    1.4690    1.0010 hn        1 MOL      0.214179
    158 H68         3.8800    3.4780    2.8250 h1        1 MOL      0.124806
    159 H69         2.7310    1.7170    3.7820 hc        1 MOL      0.036918
    160 H70         3.7220    0.4430    2.9180 hc        1 MOL      0.036918
    161 H71         1.8330    2.3520    1.4950 hc        1 MOL      0.036048
    162 H72         1.2630    0.9960    2.3200 hc        1 MOL      0.036048
    163 N14         6.2910    1.3860    3.7730 n         1 MOL     -0.357415
    164 C55         7.4280    1.3910    4.6700 c3        1 MOL     -0.348714
    165 H73         8.2710    1.8830    4.1850 h1        1 MOL      0.126425
    166 H74         7.1700    1.9290    5.5820 h1        1 MOL      0.126425
    167 H75         7.7010    0.3650    4.9180 h1        1 MOL      0.126425
    168 H76         6.3890    0.7310    3.0000 hn        1 MOL      0.323662
    169 Ca1        -0.0390   -0.0200   -2.0740 Ca        1 MOL      1.741250
    170 O24         2.2270    1.1470   -3.5530 oh        1 MOL     -0.857280
    171 H77         2.6950    0.7110   -4.2570 ho        1 MOL      0.409005
    172 H78         2.1860    2.0580   -3.8120 ho        1 MOL      0.409005
    173 O25        -2.1420    0.8390   -0.6630 oh        1 MOL     -0.857280
    174 H79        -2.3810    1.4660    0.0210 ho        1 MOL      0.409005
    175 H80        -2.9720    0.6400   -1.1010 ho        1 MOL      0.409005
    176 O26        -0.6390    2.5490   -2.6480 oh        1 MOL     -0.857280
    177 H81        -1.3890    3.0420   -2.9750 ho        1 MOL      0.409005
    178 H82         0.1130    3.1000   -2.8570 ho        1 MOL      0.409005
@<TRIPOS>BOND
     1    1    2 1   
     2    1    4 1   
     3    1    5 1   
     4    1    6 1   
     5    2    3 2   
     6    2    7 1   
     7    7    8 1   
     8    7   15 1   
     9    8    9 1   
    10    8   11 1   
    11    8   16 1   
    12    9   10 2   
    13    9   19 1   
    14   11   12 1   
    15   11   17 1   
    16   11   18 1   
    17   12   13 1   
    18   12   14 1   
    19   19   20 1   
    20   19   24 1   
    21   20   21 1   
    22   20   23 1   
    23   20   25 1   
    24   21   22 2   
    25   21   29 1   
    26   23   26 1   
    27   23   27 1   
    28   23   28 1   
    29   29   30 1   
    30   29   37 1   
    31   30   31 1   
    32   30   33 1   
    33   30   38 1   
    34   31   32 2   
    35   31   41 1   
    36   33   34 1   
    37   33   39 1   
    38   33   40 1   
    39   34   35 1   
    40   34   36 1   
    41   41   42 1   
    42   41   45 1   
    43   42   43 1   
    44   42   46 1   
    45   42   47 1   
    46   43   44 2   
    47   43   48 1   
    48   48   49 1   
    49   48   56 1   
    50   49   50 1   
    51   49   52 1   
    52   49   57 1   
    53   50   51 2   
    54   50   62 1   
    55   52   53 1   
    56   52   58 1   
    57   52   59 1   
    58   53   54 1   
    59   53   55 2   
    60   54   60 1   
    61   54   61 1   
    62   62   63 1   
    63   62   66 1   
    64   63   64 1   
    65   63   67 1   
    66   63   68 1   
    67   64   65 2   
    68   64   69 1   
    69   69   70 1   
    70   69   76 1   
    71   70   71 1   
    72   70   73 1   
    73   70   77 1   
    74   71   72 2   
    75   71   83 1   
    76   73   74 1   
    77   73   75 1   
    78   73   78 1   
    79   74   80 1   
    80   74   81 1   
    81   74   82 1   
    82   75   79 1   
    83   83   84 1   
    84   83   91 1   
    85   84   85 1   
    86   84   87 1   
    87   84   92 1   
    88   85   86 2   
    89   85  102 1   
    90   87   88 1   
    91   87   89 1   
    92   87   93 1   
    93   88   90 1   
    94   88   94 1   
    95   88   95 1   
    96   89   96 1   
    97   89   97 1   
    98   89   98 1   
    99   90   99 1   
   100   90  100 1   
   101   90  101 1   
   102  102  103 1   
   103  102  110 1   
   104  103  104 1   
   105  103  106 1   
   106  103  111 1   
   107  104  105 2   
   108  104  114 1   
   109  106  107 1   
   110  106  112 1   
   111  106  113 1   
   112  107  108 1   
   113  107  109 1   
   114  114  115 1   
   115  114  125 1   
   116  115  116 1   
   117  115  118 1   
   118  115  126 1   
   119  116  117 2   
   120  116  134 1   
   121  118  119 1   
   122  118  127 1   
   123  118  128 1   
   124  119  120 ar  
   125  119  121 ar  
   126  120  122 ar  
   127  120  129 1   
   128  121  123 ar  
   129  121  130 1   
   130  122  124 ar  
   131  122  131 1   
   132  123  124 ar  
   133  123  132 1   
   134  124  133 1   
   135  134  135 1   
   136  134  140 1   
   137  135  136 1   
   138  135  138 1   
   139  135  141 1   
   140  136  137 2   
   141  136  148 1   
   142  138  139 1   
   143  138  142 1   
   144  138  143 1   
   145  139  140 1   
   146  139  144 1   
   147  139  145 1   
   148  140  146 1   
   149  140  147 1   
   150  148  149 1   
   151  148  157 1   
   152  149  150 1   
   153  149  152 1   
   154  149  158 1   
   155  150  151 2   
   156  150  163 1   
   157  152  153 1   
   158  152  159 1   
   159  152  160 1   
   160  153  154 1   
   161  153  161 1   
   162  153  162 1   
   163  154  155 1   
   164  154  156 1   
   165  163  164 1   
   166  163  168 1   
   167  164  165 1   
   168  164  166 1   
   169  164  167 1   
   170  170  171 1   
   171  170  172 1   
   172  173  174 1   
   173  173  175 1   
   174  176  177 1   
   175  176  178 1   
@<TRIPOS>SUBSTRUCTURE
     1 MOL         1 TEMP              0 ****  ****    0 ROOT
