@<TRIPOS>MOLECULE
MOL
  184   179     1     0     0
SMALL
resp


@<TRIPOS>ATOM
      1 C1          9.1440    6.8800    0.1600 c3        1 MOL     -0.427475
      2 C2          8.2120    5.8560    0.9390 c         1 MOL      0.659297
      3 O1          8.0480    6.0850    2.1270 o         1 MOL     -0.579121
      4 H1          9.7230    6.3440   -0.5900 hc        1 MOL      0.120061
      5 H2          8.5270    7.6350   -0.3290 hc        1 MOL      0.120061
      6 H3          9.8210    7.3630    0.8640 hc        1 MOL      0.120061
      7 N1          7.5210    4.8600    0.3100 n         1 MOL     -0.480394
      8 C3          7.5680    4.5980   -1.1380 c3        1 MOL      0.040848
      9 C4          8.8180    3.7950   -1.5710 c         1 MOL      0.417980
     10 O2          9.5510    4.2800   -2.4270 o         1 MOL     -0.546525
     11 C5          6.2630    3.8880   -1.5820 c3        1 MOL     -0.189229
     12 C6          5.8420    2.6480   -0.7090 c         1 MOL      0.502276
     13 O3          4.7960    2.7690   -0.1140 o         1 MOL     -0.547024
     14 O4          6.5060    1.5900   -0.6110 o         1 MOL     -0.547024
     15 H4          6.8560    4.3390    0.8690 hn        1 MOL      0.289901
     16 H5          7.5650    5.5540   -1.6570 h1        1 MOL      0.089543
     17 H6          6.2470    3.6710   -2.6480 hc        1 MOL      0.077916
     18 H7          5.4770    4.6520   -1.5250 hc        1 MOL      0.077916
     19 N2          9.1490    2.6330   -0.9460 n         1 MOL     -0.363248
     20 C7         10.3680    1.8870   -1.2180 c3        1 MOL      0.269657
     21 C8         10.1020    0.4160   -1.5650 c         1 MOL      0.369452
     22 O5         11.0250   -0.2140   -2.0230 o         1 MOL     -0.545861
     23 C9         11.2080    2.1230    0.0630 c3        1 MOL     -0.151373
     24 H8          8.5550    2.2710   -0.2180 hn        1 MOL      0.338790
     25 H9         11.0080    2.2170   -2.0380 h1        1 MOL      0.054058
     26 H10        10.5700    2.1000    0.9430 hc        1 MOL      0.026709
     27 H11        12.0960    1.5030    0.1620 hc        1 MOL      0.026709
     28 H12        11.5530    3.1540   -0.0040 hc        1 MOL      0.026709
     29 N3          8.8590   -0.0940   -1.4330 n         1 MOL     -0.074159
     30 C10         8.5250   -1.4660   -1.7850 c3        1 MOL     -0.022548
     31 C11         7.3660   -1.4640   -2.8700 c         1 MOL      0.490759
     32 O6          7.3580   -2.3200   -3.6960 o         1 MOL     -0.532278
     33 C12         8.0830   -2.1120   -0.5100 c3        1 MOL     -0.049662
     34 C13         7.0320   -1.3220    0.2640 c         1 MOL      0.604034
     35 O7          7.2960   -0.6500    1.3170 o         1 MOL     -0.740604
     36 O8          5.7820   -1.4290   -0.1960 o         1 MOL     -0.740604
     37 H13         8.1410    0.5900   -1.2170 hn        1 MOL     -0.103007
     38 H14         9.3550   -2.0500   -2.1780 h1        1 MOL      0.098906
     39 H15         8.9490   -2.2880    0.1250 hc        1 MOL      0.035906
     40 H16         7.6630   -3.0580   -0.8110 hc        1 MOL      0.035906
     41 N4          6.3330   -0.5600   -2.8790 n         1 MOL     -0.331019
     42 C14         5.1070   -0.6300   -3.7270 c3        1 MOL     -0.192545
     43 C15         4.2730   -1.9140   -3.5160 c         1 MOL      0.534228
     44 O9          3.5930   -2.3060   -4.4810 o         1 MOL     -0.548738
     45 H17         6.3300    0.1350   -2.1540 hn        1 MOL      0.237895
     46 H18         5.3420   -0.5760   -4.7840 h1        1 MOL      0.118905
     47 H19         4.5130    0.2470   -3.4860 h1        1 MOL      0.118905
     48 N5          4.4750   -2.5650   -2.3760 n         1 MOL     -0.515121
     49 C16         4.0600   -3.9810   -2.2610 c3        1 MOL     -0.170822
     50 C17         3.2990   -4.3610   -0.9980 c         1 MOL      0.536132
     51 O10         2.8540   -5.4700   -0.9110 o         1 MOL     -0.523425
     52 C18         5.2630   -4.8200   -2.5400 c3        1 MOL     -0.153586
     53 C19         5.3750   -5.2630   -3.9490 c         1 MOL      0.522513
     54 N6          6.0150   -4.4770   -4.8000 n         1 MOL     -0.595142
     55 O11         4.8920   -6.3360   -4.2680 o         1 MOL     -0.544374
     56 H20         5.0490   -2.0980   -1.6830 hn        1 MOL      0.586485
     57 H21         3.3730   -4.2530   -3.0580 h1        1 MOL      0.215369
     58 H22         5.3280   -5.6860   -1.8730 hc        1 MOL      0.062466
     59 H23         6.1370   -4.3070   -2.1350 hc        1 MOL      0.062466
     60 H24         6.4030   -3.6180   -4.4560 hn        1 MOL      0.309447
     61 H25         6.3280   -4.7330   -5.7260 hn        1 MOL      0.309447
     62 N7          3.1320   -3.4070   -0.0610 n         1 MOL     -0.225246
     63 C20         2.3440   -3.5750    1.1410 c3        1 MOL     -0.228060
     64 C21         2.2780   -2.3390    1.9980 c         1 MOL      0.780949
     65 O12         3.0120   -1.4310    1.7950 o         1 MOL     -0.648573
     66 H26         3.5890   -2.5120   -0.2380 hn        1 MOL      0.116515
     67 H27         2.8730   -4.3620    1.6840 h1        1 MOL      0.127851
     68 H28         1.3050   -3.8390    0.9450 h1        1 MOL      0.127851
     69 N8          1.3750   -2.1220    2.9360 n         1 MOL     -0.346766
     70 C22         0.4050   -3.1890    3.2920 c3        1 MOL     -0.406026
     71 C23        -1.0700   -2.7280    3.3410 c         1 MOL      0.755816
     72 O13        -1.9240   -3.6170    3.3220 o         1 MOL     -0.541365
     73 C24         0.7730   -3.7690    4.6890 c3        1 MOL      0.525275
     74 C25         1.9270   -4.7050    4.5900 c3        1 MOL     -0.451951
     75 O14         1.2780   -2.8420    5.6550 oh        1 MOL     -0.638147
     76 H29         1.3480   -1.2400    3.4280 hn        1 MOL      0.252690
     77 H30         0.3060   -4.0310    2.6120 h1        1 MOL      0.153178
     78 H31        -0.0840   -4.3140    5.0830 h1        1 MOL     -0.006795
     79 H32         0.5890   -2.8010    6.3220 ho        1 MOL      0.380244
     80 H33         2.0610   -5.0860    5.5970 hc        1 MOL      0.106619
     81 H34         1.5560   -5.5190    3.9780 hc        1 MOL      0.106619
     82 H35         2.7460   -4.1210    4.1570 hc        1 MOL      0.106619
     83 N9         -1.2830   -1.4180    3.4290 n         1 MOL     -0.634942
     84 C26        -2.6550   -0.8500    3.2730 c3        1 MOL     -0.067963
     85 C27        -2.6800    0.1600    2.1390 c         1 MOL      0.569570
     86 O15        -1.8520    1.0610    2.1430 o         1 MOL     -0.557047
     87 C28        -3.1760   -0.2000    4.6230 c3        1 MOL      0.081849
     88 C29        -3.1500   -1.3730    5.6340 c3        1 MOL     -0.160692
     89 C30        -4.6210    0.2040    4.4740 c3        1 MOL     -0.066775
     90 C31        -3.6510   -1.1480    7.0190 c3        1 MOL     -0.198560
     91 H36        -0.5240   -0.7670    3.5200 hn        1 MOL      0.341308
     92 H37        -3.2320   -1.7090    2.9420 h1        1 MOL      0.077520
     93 H38        -2.6460    0.6830    4.9680 hc        1 MOL      0.037478
     94 H39        -2.2060   -1.9080    5.5580 hc        1 MOL      0.077480
     95 H40        -3.8460   -2.1150    5.2500 hc        1 MOL      0.077480
     96 H41        -4.9340    0.7380    5.3690 hc        1 MOL      0.043454
     97 H42        -4.7000    0.8720    3.6120 hc        1 MOL      0.043454
     98 H43        -5.2950   -0.6310    4.3200 hc        1 MOL      0.043454
     99 H44        -3.1840   -0.2840    7.4830 hc        1 MOL      0.048453
    100 H45        -4.7200   -0.9180    6.9860 hc        1 MOL      0.048453
    101 H46        -3.4370   -2.0350    7.6230 hc        1 MOL      0.048453
    102 N10        -3.5970   -0.0100    1.1560 n         1 MOL     -0.430476
    103 C32        -4.6250   -1.0170    1.0510 c3        1 MOL      0.075051
    104 C33        -5.8190   -0.5420    0.2030 c         1 MOL      0.597527
    105 O16        -5.6440    0.2480   -0.7450 o         1 MOL     -0.530200
    106 C34        -3.9570   -2.1420    0.3770 c3        1 MOL     -0.216771
    107 C35        -4.8730   -3.3940    0.4420 c         1 MOL      0.695600
    108 O17        -5.3070   -3.9230   -0.6190 o         1 MOL     -0.710466
    109 O18        -5.2520   -3.7550    1.6170 o         1 MOL     -0.710466
    110 H47        -3.5290    0.6210    0.3670 hn        1 MOL      0.281849
    111 H48        -5.0180   -1.2640    2.0330 h1        1 MOL      0.054515
    112 H49        -3.0650   -2.4520    0.9020 hc        1 MOL      0.054377
    113 H50        -3.6260   -1.8540   -0.6260 hc        1 MOL      0.054377
    114 N11        -6.9850   -1.0500    0.5050 n         1 MOL     -0.708937
    115 C36        -8.1710   -0.8620   -0.4330 c3        1 MOL      0.540146
    116 C37        -9.2600    0.0820    0.1870 c         1 MOL      0.175279
    117 O19        -9.5220    0.1020    1.4170 o         1 MOL     -0.470371
    118 C38        -8.7070   -2.2090   -0.8700 c3        1 MOL     -0.252510
    119 C39        -9.7430   -2.2840   -1.8600 ca        1 MOL      0.232689
    120 C40        -9.4670   -2.5600   -3.2150 ca        1 MOL     -0.263477
    121 C41       -11.0760   -2.0990   -1.4430 ca        1 MOL     -0.263477
    122 C42       -10.5050   -2.6390   -4.1540 ca        1 MOL     -0.016828
    123 C43       -12.1210   -2.2460   -2.4030 ca        1 MOL     -0.016828
    124 C44       -11.8040   -2.5430   -3.7060 ca        1 MOL     -0.231405
    125 H51        -7.0340   -1.6720    1.3070 hn        1 MOL      0.370937
    126 H52        -7.7590   -0.4060   -1.3350 h1        1 MOL     -0.002428
    127 H53        -8.9940   -2.7480    0.0370 hc        1 MOL      0.078825
    128 H54        -7.8570   -2.7470   -1.3050 hc        1 MOL      0.078825
    129 H55        -8.4680   -2.6840   -3.5870 ha        1 MOL      0.152176
    130 H56       -11.2580   -1.8530   -0.4010 ha        1 MOL      0.152176
    131 H57       -10.2820   -2.7950   -5.2080 ha        1 MOL      0.084351
    132 H58       -13.1400   -2.2090   -2.0600 ha        1 MOL      0.084351
    133 H59       -12.5540   -2.4850   -4.4760 ha        1 MOL      0.105002
    134 N12       -10.0630    0.7460   -0.6830 n         1 MOL      0.036480
    135 C45        -9.8920    1.1150   -2.0690 c3        1 MOL      0.023621
    136 C46        -8.5640    1.9210   -2.2640 c         1 MOL      0.476963
    137 O20        -7.9570    1.6300   -3.3010 o         1 MOL     -0.545925
    138 C47       -11.1120    2.0290   -2.4420 c3        1 MOL     -0.041370
    139 C48       -12.1080    1.7630   -1.2960 c3        1 MOL      0.031343
    140 C49       -11.2110    1.3900   -0.0940 c3        1 MOL     -0.247706
    141 H60        -9.8230    0.2480   -2.7140 h1        1 MOL      0.034101
    142 H61       -10.8350    3.0760   -2.3280 hc        1 MOL      0.029338
    143 H62       -11.5390    1.8890   -3.4400 hc        1 MOL      0.029338
    144 H63       -12.8060    2.5940   -1.2640 hc        1 MOL      0.004743
    145 H64       -12.8010    0.9560   -1.5560 hc        1 MOL      0.004743
    146 H65       -10.8620    2.2940    0.4140 h1        1 MOL      0.096772
    147 H66       -11.8620    0.6930    0.4310 h1        1 MOL      0.096772
    148 N13        -8.2560    2.8710   -1.4130 n         1 MOL     -0.459949
    149 C50        -7.1030    3.7660   -1.4620 c3        1 MOL      0.168853
    150 C51        -7.3760    4.7550   -2.5680 c         1 MOL      0.373505
    151 O21        -8.0700    5.7810   -2.4110 o         1 MOL     -0.582110
    152 C52        -6.9390    4.4460   -0.0950 c3        1 MOL     -0.091665
    153 C53        -6.2570    3.7070    1.0380 c3        1 MOL     -0.175315
    154 C54        -6.0480    4.5870    2.3000 c         1 MOL      0.673590
    155 O22        -7.0540    5.0640    2.8630 o         1 MOL     -0.678531
    156 O23        -4.9710    4.6470    2.9420 o         1 MOL     -0.678531
    157 H67        -8.8450    3.1080   -0.6280 hn        1 MOL      0.370042
    158 H68        -6.2820    3.0980   -1.7390 h1        1 MOL      0.085716
    159 H69        -7.9120    4.6790    0.3430 hc        1 MOL      0.034722
    160 H70        -6.4130    5.3960   -0.2240 hc        1 MOL      0.034722
    161 H71        -5.3730    3.1690    0.6910 hc        1 MOL      0.014152
    162 H72        -6.9520    2.9090    1.3100 hc        1 MOL      0.014152
    163 N14        -6.8350    4.6590   -3.7670 n         1 MOL     -0.247346
    164 C55        -5.9570    3.6560   -4.3200 c3        1 MOL     -0.117083
    165 H73        -4.9290    4.0160   -4.2890 h1        1 MOL      0.063981
    166 H74        -6.0380    2.7400   -3.7340 h1        1 MOL      0.063981
    167 H75        -6.2410    3.4530   -5.3520 h1        1 MOL      0.063981
    168 H76        -6.9900    5.4540   -4.3580 hn        1 MOL      0.245329
    169 Ca1         5.0600    0.5840    1.3190 Ca        1 MOL      1.771056
    170 O24         5.6880   -0.2780    3.8580 oh        1 MOL     -0.848519
    171 H77         6.4620   -0.0330    4.3700 ho        1 MOL      0.403019
    172 H78         5.2930   -0.9980    4.3660 ho        1 MOL      0.403019
    173 O25         5.2450    2.5610    3.2400 oh        1 MOL     -0.848519
    174 H79         5.9700    2.5410    3.8600 ho        1 MOL      0.403019
    175 H80         4.5240    2.9640    3.7160 ho        1 MOL      0.403019
    176 O26         2.6240    1.4920    2.1690 oh        1 MOL     -0.848519
    177 H81         1.9960    0.9880    2.6790 ho        1 MOL      0.403019
    178 H82         2.5370    2.3900    2.5070 ho        1 MOL      0.403019
    179 O27         7.7370    1.8580    2.0820 oh        1 MOL     -0.848519
    180 H83         7.8390    0.8980    2.0860 ho        1 MOL      0.403019
    181 H84         8.0680    2.1320    2.9400 ho        1 MOL      0.403019
    182 O28         3.1420    0.2110   -0.8580 oh        1 MOL     -0.848519
    183 H85         2.5100    0.9170   -0.7630 ho        1 MOL      0.403019
    184 H86         2.7430   -0.3900   -1.4940 ho        1 MOL      0.403019
@<TRIPOS>BOND
     1    1    2 1   
     2    1    4 1   
     3    1    5 1   
     4    1    6 1   
     5    2    3 2   
     6    2    7 1   
     7    7    8 1   
     8    7   15 1   
     9    8    9 1   
    10    8   11 1   
    11    8   16 1   
    12    9   10 2   
    13    9   19 1   
    14   11   12 1   
    15   11   17 1   
    16   11   18 1   
    17   12   13 1   
    18   12   14 1   
    19   19   20 1   
    20   19   24 1   
    21   20   21 1   
    22   20   23 1   
    23   20   25 1   
    24   21   22 2   
    25   21   29 1   
    26   23   26 1   
    27   23   27 1   
    28   23   28 1   
    29   29   30 1   
    30   29   37 1   
    31   30   31 1   
    32   30   33 1   
    33   30   38 1   
    34   31   32 2   
    35   31   41 1   
    36   33   34 1   
    37   33   39 1   
    38   33   40 1   
    39   34   35 1   
    40   34   36 1   
    41   41   42 1   
    42   41   45 1   
    43   42   43 1   
    44   42   46 1   
    45   42   47 1   
    46   43   44 2   
    47   43   48 1   
    48   48   49 1   
    49   48   56 1   
    50   49   50 1   
    51   49   52 1   
    52   49   57 1   
    53   50   51 2   
    54   50   62 1   
    55   52   53 1   
    56   52   58 1   
    57   52   59 1   
    58   53   54 1   
    59   53   55 2   
    60   54   60 1   
    61   54   61 1   
    62   62   63 1   
    63   62   66 1   
    64   63   64 1   
    65   63   67 1   
    66   63   68 1   
    67   64   65 2   
    68   64   69 1   
    69   69   70 1   
    70   69   76 1   
    71   70   71 1   
    72   70   73 1   
    73   70   77 1   
    74   71   72 2   
    75   71   83 1   
    76   73   74 1   
    77   73   75 1   
    78   73   78 1   
    79   74   80 1   
    80   74   81 1   
    81   74   82 1   
    82   75   79 1   
    83   83   84 1   
    84   83   91 1   
    85   84   85 1   
    86   84   87 1   
    87   84   92 1   
    88   85   86 2   
    89   85  102 1   
    90   87   88 1   
    91   87   89 1   
    92   87   93 1   
    93   88   90 1   
    94   88   94 1   
    95   88   95 1   
    96   89   96 1   
    97   89   97 1   
    98   89   98 1   
    99   90   99 1   
   100   90  100 1   
   101   90  101 1   
   102  102  103 1   
   103  102  110 1   
   104  103  104 1   
   105  103  106 1   
   106  103  111 1   
   107  104  105 2   
   108  104  114 1   
   109  106  107 1   
   110  106  112 1   
   111  106  113 1   
   112  107  108 1   
   113  107  109 1   
   114  114  115 1   
   115  114  125 1   
   116  115  116 1   
   117  115  118 1   
   118  115  126 1   
   119  116  117 2   
   120  116  134 1   
   121  118  119 1   
   122  118  127 1   
   123  118  128 1   
   124  119  120 ar  
   125  119  121 ar  
   126  120  122 ar  
   127  120  129 1   
   128  121  123 ar  
   129  121  130 1   
   130  122  124 ar  
   131  122  131 1   
   132  123  124 ar  
   133  123  132 1   
   134  124  133 1   
   135  134  135 1   
   136  134  140 1   
   137  135  136 1   
   138  135  138 1   
   139  135  141 1   
   140  136  137 2   
   141  136  148 1   
   142  138  139 1   
   143  138  142 1   
   144  138  143 1   
   145  139  140 1   
   146  139  144 1   
   147  139  145 1   
   148  140  146 1   
   149  140  147 1   
   150  148  149 1   
   151  148  157 1   
   152  149  150 1   
   153  149  152 1   
   154  149  158 1   
   155  150  151 2   
   156  150  163 1   
   157  152  153 1   
   158  152  159 1   
   159  152  160 1   
   160  153  154 1   
   161  153  161 1   
   162  153  162 1   
   163  154  155 1   
   164  154  156 1   
   165  163  164 1   
   166  163  168 1   
   167  164  165 1   
   168  164  166 1   
   169  164  167 1   
   170  170  171 1   
   171  170  172 1   
   172  173  174 1   
   173  173  175 1   
   174  176  177 1   
   175  176  178 1   
   176  179  180 1   
   177  179  181 1   
   178  182  183 1   
   179  182  184 1   
@<TRIPOS>SUBSTRUCTURE
     1 MOL         1 TEMP              0 ****  ****    0 ROOT
