@<TRIPOS>MOLECULE
MOL
  184   179     1     0     0
SMALL
resp


@<TRIPOS>ATOM
      1 C1          7.1760    6.9630   -1.0160 c3        1 MOL     -0.481472
      2 C2          7.3010    5.8760    0.0120 c         1 MOL      0.912175
      3 O1          7.0320    6.0850    1.1330 o         1 MOL     -0.646402
      4 H1          8.1310    7.0900   -1.5260 hc        1 MOL      0.122322
      5 H2          6.4100    6.6900   -1.7430 hc        1 MOL      0.122322
      6 H3          6.8990    7.8970   -0.5270 hc        1 MOL      0.122322
      7 N1          7.6710    4.6340   -0.3570 n         1 MOL     -0.743973
      8 C3          8.0860    4.1230   -1.7380 c3        1 MOL      0.096227
      9 C4          9.1620    3.0830   -1.7010 c         1 MOL      0.504868
     10 O2          9.7630    2.8510   -2.7630 o         1 MOL     -0.550379
     11 C5          6.8150    3.6310   -2.3570 c3        1 MOL     -0.329503
     12 C6          6.1220    2.6060   -1.4730 c         1 MOL      0.899277
     13 O3          4.8760    2.6550   -1.3240 o         1 MOL     -0.720225
     14 O4          6.6410    1.5210   -1.1190 o         1 MOL     -0.720225
     15 H4          7.6850    3.9350    0.3800 hn        1 MOL      0.287394
     16 H5          8.4720    4.9650   -2.3180 h1        1 MOL      0.092162
     17 H6          7.1150    3.1370   -3.2840 hc        1 MOL      0.100433
     18 H7          6.0790    4.4260   -2.4360 hc        1 MOL      0.100433
     19 N2          9.4010    2.4550   -0.5280 n         1 MOL     -0.466135
     20 C7         10.3750    1.3920   -0.2260 c3        1 MOL      0.291983
     21 C8          9.9410   -0.0370   -0.3770 c         1 MOL      0.494105
     22 O5         10.7070   -0.9310   -0.2600 o         1 MOL     -0.568387
     23 C9         10.9730    1.7130    1.1730 c3        1 MOL     -0.235918
     24 H8          8.6800    2.6220    0.1600 hn        1 MOL      0.274617
     25 H9         11.1590    1.3730   -0.9870 h1        1 MOL      0.037396
     26 H10        11.6910    0.9090    1.3520 hc        1 MOL      0.056739
     27 H11        11.5500    2.6360    1.1080 hc        1 MOL      0.056739
     28 H12        10.2150    1.6940    1.9530 hc        1 MOL      0.056739
     29 N3          8.6520   -0.3420   -0.6690 n         1 MOL     -0.254291
     30 C10         8.2100   -1.7290   -0.9520 c3        1 MOL     -0.086211
     31 C11         7.3380   -1.9320   -2.1830 c         1 MOL      0.424900
     32 O6          7.0790   -3.0990   -2.5530 o         1 MOL     -0.531558
     33 C12         7.4460   -2.2750    0.3400 c3        1 MOL     -0.120420
     34 C13         6.2390   -1.4710    0.6300 c         1 MOL      0.718207
     35 O7          6.3530   -0.8730    1.7260 o         1 MOL     -0.727204
     36 O8          5.2920   -1.2820   -0.2170 o         1 MOL     -0.727204
     37 H13         8.1370    0.5040   -0.8790 hn        1 MOL      0.103877
     38 H14         9.0770   -2.3680   -1.0930 h1        1 MOL      0.140127
     39 H15         8.1610   -2.3160    1.1580 hc        1 MOL      0.046083
     40 H16         7.1880   -3.3130    0.0840 hc        1 MOL      0.046083
     41 N4          6.7490   -0.8510   -2.6950 n         1 MOL     -0.257640
     42 C14         5.8280   -0.7860   -3.7870 c3        1 MOL     -0.012287
     43 C15         4.7140   -1.8840   -3.8400 c         1 MOL      0.405669
     44 O9          4.3440   -2.2540   -4.9300 o         1 MOL     -0.487108
     45 H17         6.8690    0.0510   -2.2550 hn        1 MOL      0.231750
     46 H18         6.3680   -0.8410   -4.7330 h1        1 MOL      0.061163
     47 H19         5.4190    0.2320   -3.7820 h1        1 MOL      0.061163
     48 N5          4.1890   -2.3820   -2.6650 n         1 MOL     -0.372639
     49 C16         3.0770   -3.3630   -2.5250 c3        1 MOL      0.080786
     50 C17         2.2510   -3.2990   -1.2260 c         1 MOL      0.316813
     51 O10         1.1510   -3.8380   -1.2220 o         1 MOL     -0.445247
     52 C18         3.5250   -4.8860   -2.6360 c3        1 MOL     -0.127681
     53 C19         4.1770   -5.2490   -3.9940 c         1 MOL      0.672546
     54 N6          5.4440   -4.9880   -4.1620 n         1 MOL     -0.879418
     55 O11         3.5320   -5.6780   -4.8950 o         1 MOL     -0.568607
     56 H20         4.5300   -1.8860   -1.8520 hn        1 MOL      0.272143
     57 H21         2.3750   -3.1970   -3.3320 h1        1 MOL      0.100981
     58 H22         2.6380   -5.5080   -2.5190 hc        1 MOL      0.040261
     59 H23         4.2630   -5.0900   -1.8630 hc        1 MOL      0.040261
     60 H24         5.9560   -4.4830   -3.4500 hn        1 MOL      0.393513
     61 H25         5.8060   -4.9570   -5.1050 hn        1 MOL      0.393513
     62 N7          2.7670   -2.6380   -0.1630 n         1 MOL     -0.276804
     63 C20         2.0490   -2.6480    1.0650 c3        1 MOL     -0.065688
     64 C21         2.5680   -1.7070    2.1650 c         1 MOL      0.424070
     65 O12         3.2550   -0.7700    1.8520 o         1 MOL     -0.499607
     66 H26         3.6400   -2.1390   -0.1360 hn        1 MOL      0.247783
     67 H27         2.1460   -3.6760    1.4070 h1        1 MOL      0.135447
     68 H28         0.9960   -2.4100    0.9430 h1        1 MOL      0.135447
     69 N8          2.1820   -1.9290    3.4530 n         1 MOL     -0.301885
     70 C22         1.3240   -2.9840    4.0570 c3        1 MOL     -0.272697
     71 C23        -0.0950   -2.8900    3.4640 c         1 MOL      0.286956
     72 O13        -0.6910   -3.9460    3.1720 o         1 MOL     -0.485131
     73 C24         1.2910   -2.8230    5.6280 c3        1 MOL      0.621043
     74 C25         0.4030   -3.8140    6.3110 c3        1 MOL     -0.401288
     75 O14         2.5690   -2.8880    6.1820 oh        1 MOL     -0.698963
     76 H29         2.7020   -1.2810    4.0440 hn        1 MOL      0.211299
     77 H30         1.7020   -3.9590    3.7650 h1        1 MOL      0.127814
     78 H31         0.9100   -1.8240    5.8610 h1        1 MOL     -0.005932
     79 H32         3.1630   -3.4450    5.6700 ho        1 MOL      0.404431
     80 H33         0.7350   -3.9600    7.3380 hc        1 MOL      0.097004
     81 H34        -0.6130   -3.4150    6.3360 hc        1 MOL      0.097004
     82 H35         0.4240   -4.7810    5.8110 hc        1 MOL      0.097004
     83 N9         -0.6590   -1.7260    3.2140 n         1 MOL     -0.062357
     84 C26        -2.0260   -1.4470    2.6400 c3        1 MOL     -0.332791
     85 C27        -1.9500   -0.2390    1.7120 c         1 MOL      0.518523
     86 O15        -1.1440    0.6460    1.9380 o         1 MOL     -0.526655
     87 C28        -3.0380   -1.3240    3.7810 c3        1 MOL      0.393436
     88 C29        -2.5880   -0.2920    4.8090 c3        1 MOL     -0.052911
     89 C30        -3.2240   -2.7060    4.3170 c3        1 MOL      0.088610
     90 C31        -3.7280    0.0540    5.6910 c3        1 MOL     -0.690123
     91 H36        -0.1660   -0.8840    3.4980 hn        1 MOL      0.107409
     92 H37        -2.2900   -2.3100    2.0240 h1        1 MOL      0.215043
     93 H38        -3.9780   -1.0440    3.2900 hc        1 MOL     -0.048979
     94 H39        -2.4090    0.6470    4.2750 hc        1 MOL      0.067137
     95 H40        -1.7350   -0.6570    5.3760 hc        1 MOL      0.067137
     96 H41        -3.2620   -3.4740    3.5390 hc        1 MOL     -0.039389
     97 H42        -2.4270   -2.9350    5.0280 hc        1 MOL     -0.039389
     98 H43        -4.1490   -2.8580    4.8570 hc        1 MOL     -0.039389
     99 H44        -3.3900    0.8590    6.3300 hc        1 MOL      0.174619
    100 H45        -4.4880    0.5490    5.0770 hc        1 MOL      0.174619
    101 H46        -4.1350   -0.8230    6.1940 hc        1 MOL      0.174619
    102 N10        -2.9460   -0.0930    0.7990 n         1 MOL     -0.489990
    103 C32        -3.8770   -1.1880    0.3270 c3        1 MOL      0.188907
    104 C33        -5.2030   -0.6880   -0.1340 c         1 MOL      0.648811
    105 O16        -5.2060    0.3950   -0.6980 o         1 MOL     -0.544633
    106 C34        -3.2360   -1.9780   -0.7590 c3        1 MOL     -0.384379
    107 C35        -3.9920   -3.2550   -1.1660 c         1 MOL      0.768061
    108 O17        -3.7650   -3.8020   -2.2350 o         1 MOL     -0.706922
    109 O18        -4.5340   -3.9300   -0.2970 o         1 MOL     -0.706922
    110 H47        -3.0040    0.7270    0.2180 hn        1 MOL      0.325730
    111 H48        -4.0440   -1.9510    1.0870 h1        1 MOL     -0.027532
    112 H49        -2.2800   -2.4450   -0.4990 hc        1 MOL      0.078780
    113 H50        -3.0900   -1.2590   -1.5630 hc        1 MOL      0.078780
    114 N11        -6.3230   -1.3930    0.1410 n         1 MOL     -0.610372
    115 C36        -7.6730   -1.1500   -0.4440 c3        1 MOL      0.259407
    116 C37        -8.5410   -0.2920    0.4820 c         1 MOL      0.363454
    117 O19        -8.3360   -0.3770    1.6670 o         1 MOL     -0.481042
    118 C38        -8.3000   -2.6080   -0.5390 c3        1 MOL     -0.218063
    119 C39        -9.4240   -2.5460   -1.5010 ca        1 MOL      0.258242
    120 C40        -9.1370   -2.5270   -2.8520 ca        1 MOL     -0.307746
    121 C41       -10.7250   -2.4770   -0.9830 ca        1 MOL     -0.307746
    122 C42       -10.2220   -2.5180   -3.7240 ca        1 MOL     -0.034188
    123 C43       -11.7790   -2.4910   -1.8790 ca        1 MOL     -0.034188
    124 C44       -11.5700   -2.5070   -3.2450 ca        1 MOL     -0.198053
    125 H51        -6.2860   -2.1760    0.7700 hn        1 MOL      0.315853
    126 H52        -7.5320   -0.6540   -1.4140 h1        1 MOL      0.052772
    127 H53        -8.6510   -3.0070    0.4170 hc        1 MOL      0.087682
    128 H54        -7.6200   -3.3520   -0.9350 hc        1 MOL      0.087682
    129 H55        -8.1620   -2.5950   -3.3090 ha        1 MOL      0.177524
    130 H56       -10.9580   -2.3040    0.0580 ha        1 MOL      0.177524
    131 H57       -10.1200   -2.4290   -4.7910 ha        1 MOL      0.089981
    132 H58       -12.7240   -2.3580   -1.3850 ha        1 MOL      0.089981
    133 H59       -12.4360   -2.4400   -3.8870 ha        1 MOL      0.104139
    134 N12        -9.6100    0.3960    0.0150 n         1 MOL     -0.263153
    135 C45        -9.8200    0.7360   -1.3780 c3        1 MOL      0.060607
    136 C46        -8.8360    1.8210   -1.7680 c         1 MOL      0.452630
    137 O20        -8.4990    1.8970   -2.9170 o         1 MOL     -0.553320
    138 C47       -11.2860    1.2060   -1.4060 c3        1 MOL     -0.021807
    139 C48       -11.5550    1.6190    0.0650 c3        1 MOL     -0.005423
    140 C49       -10.6730    0.7320    0.9030 c3        1 MOL      0.042429
    141 H60        -9.7600   -0.1030   -2.0550 h1        1 MOL      0.066814
    142 H61       -11.4340    2.0860   -2.0240 hc        1 MOL      0.017739
    143 H62       -11.8970    0.4010   -1.8090 hc        1 MOL      0.017739
    144 H63       -11.2310    2.6460    0.2250 hc        1 MOL      0.001180
    145 H64       -12.6050    1.5230    0.3560 hc        1 MOL      0.001180
    146 H65       -10.2420    1.3340    1.7070 h1        1 MOL      0.020568
    147 H66       -11.2190   -0.1470    1.2580 h1        1 MOL      0.020568
    148 N13        -8.4900    2.7570   -0.8740 n         1 MOL     -0.336036
    149 C50        -7.6740    3.9070   -1.1210 c3        1 MOL      0.060711
    150 C51        -8.5940    5.0230   -1.7700 c         1 MOL      0.418341
    151 O21        -9.3930    5.5400   -1.0720 o         1 MOL     -0.545688
    152 C52        -6.9320    4.4720    0.1260 c3        1 MOL     -0.130500
    153 C53        -6.3330    3.4460    1.0740 c3        1 MOL     -0.258338
    154 C54        -5.5910    4.1570    2.1700 c         1 MOL      0.822717
    155 O22        -6.1180    4.5350    3.2490 o         1 MOL     -0.729218
    156 O23        -4.3890    4.3630    2.0450 o         1 MOL     -0.729218
    157 H67        -8.9820    2.6600    0.0060 hn        1 MOL      0.374292
    158 H68        -6.9140    3.5630   -1.8210 h1        1 MOL      0.109033
    159 H69        -7.6870    5.0080    0.7040 hc        1 MOL      0.045909
    160 H70        -6.1550    5.1540   -0.2210 hc        1 MOL      0.045909
    161 H71        -5.6460    2.9000    0.4280 hc        1 MOL      0.041189
    162 H72        -7.0440    2.6830    1.3540 hc        1 MOL      0.041189
    163 N14        -8.4750    5.4350   -3.0390 n         1 MOL     -0.292736
    164 C55        -7.6780    4.8590   -4.1420 c3        1 MOL     -0.130807
    165 H73        -6.6180    4.9400   -3.9040 h1        1 MOL      0.072229
    166 H74        -7.9420    3.8100   -4.2720 h1        1 MOL      0.072229
    167 H75        -7.8850    5.4030   -5.0640 h1        1 MOL      0.072229
    168 H76        -9.0410    6.2520   -3.2380 hn        1 MOL      0.240378
    169 Ca1         4.7700    1.1330    0.8380 Ca        1 MOL      1.794297
    170 O24         4.9280    3.7150    1.7010 oh        1 MOL     -0.842550
    171 H77         4.3140    4.4550    1.6120 ho        1 MOL      0.405092
    172 H78         5.5650    4.0130    2.3480 ho        1 MOL      0.405092
    173 O25         4.9940    1.4650    3.7390 oh        1 MOL     -0.842550
    174 H79         4.9170    2.3160    4.1680 ho        1 MOL      0.405092
    175 H80         4.7130    0.8420    4.4000 ho        1 MOL      0.405092
    176 O26         2.1740    1.9660    1.7300 oh        1 MOL     -0.842550
    177 H81         1.5660    2.5380    1.2560 ho        1 MOL      0.405092
    178 H82         1.6190    1.4700    2.3260 ho        1 MOL      0.405092
    179 O27         7.5780    2.4170    1.5810 oh        1 MOL     -0.842550
    180 H83         7.5040    3.0790    2.2710 ho        1 MOL      0.405092
    181 H84         8.0790    1.7120    1.9770 ho        1 MOL      0.405092
    182 O28         3.0220    0.3910   -0.9350 oh        1 MOL     -0.842550
    183 H85         2.0870    0.3650   -0.7400 ho        1 MOL      0.405092
    184 H86         3.0710    0.2930   -1.8800 ho        1 MOL      0.405092
@<TRIPOS>BOND
     1    1    2 1   
     2    1    4 1   
     3    1    5 1   
     4    1    6 1   
     5    2    3 2   
     6    2    7 1   
     7    7    8 1   
     8    7   15 1   
     9    8    9 1   
    10    8   11 1   
    11    8   16 1   
    12    9   10 2   
    13    9   19 1   
    14   11   12 1   
    15   11   17 1   
    16   11   18 1   
    17   12   13 1   
    18   12   14 1   
    19   19   20 1   
    20   19   24 1   
    21   20   21 1   
    22   20   23 1   
    23   20   25 1   
    24   21   22 2   
    25   21   29 1   
    26   23   26 1   
    27   23   27 1   
    28   23   28 1   
    29   29   30 1   
    30   29   37 1   
    31   30   31 1   
    32   30   33 1   
    33   30   38 1   
    34   31   32 2   
    35   31   41 1   
    36   33   34 1   
    37   33   39 1   
    38   33   40 1   
    39   34   35 1   
    40   34   36 1   
    41   41   42 1   
    42   41   45 1   
    43   42   43 1   
    44   42   46 1   
    45   42   47 1   
    46   43   44 2   
    47   43   48 1   
    48   48   49 1   
    49   48   56 1   
    50   49   50 1   
    51   49   52 1   
    52   49   57 1   
    53   50   51 2   
    54   50   62 1   
    55   52   53 1   
    56   52   58 1   
    57   52   59 1   
    58   53   54 1   
    59   53   55 2   
    60   54   60 1   
    61   54   61 1   
    62   62   63 1   
    63   62   66 1   
    64   63   64 1   
    65   63   67 1   
    66   63   68 1   
    67   64   65 2   
    68   64   69 1   
    69   69   70 1   
    70   69   76 1   
    71   70   71 1   
    72   70   73 1   
    73   70   77 1   
    74   71   72 2   
    75   71   83 1   
    76   73   74 1   
    77   73   75 1   
    78   73   78 1   
    79   74   80 1   
    80   74   81 1   
    81   74   82 1   
    82   75   79 1   
    83   83   84 1   
    84   83   91 1   
    85   84   85 1   
    86   84   87 1   
    87   84   92 1   
    88   85   86 2   
    89   85  102 1   
    90   87   88 1   
    91   87   89 1   
    92   87   93 1   
    93   88   90 1   
    94   88   94 1   
    95   88   95 1   
    96   89   96 1   
    97   89   97 1   
    98   89   98 1   
    99   90   99 1   
   100   90  100 1   
   101   90  101 1   
   102  102  103 1   
   103  102  110 1   
   104  103  104 1   
   105  103  106 1   
   106  103  111 1   
   107  104  105 2   
   108  104  114 1   
   109  106  107 1   
   110  106  112 1   
   111  106  113 1   
   112  107  108 1   
   113  107  109 1   
   114  114  115 1   
   115  114  125 1   
   116  115  116 1   
   117  115  118 1   
   118  115  126 1   
   119  116  117 2   
   120  116  134 1   
   121  118  119 1   
   122  118  127 1   
   123  118  128 1   
   124  119  120 ar  
   125  119  121 ar  
   126  120  122 ar  
   127  120  129 1   
   128  121  123 ar  
   129  121  130 1   
   130  122  124 ar  
   131  122  131 1   
   132  123  124 ar  
   133  123  132 1   
   134  124  133 1   
   135  134  135 1   
   136  134  140 1   
   137  135  136 1   
   138  135  138 1   
   139  135  141 1   
   140  136  137 2   
   141  136  148 1   
   142  138  139 1   
   143  138  142 1   
   144  138  143 1   
   145  139  140 1   
   146  139  144 1   
   147  139  145 1   
   148  140  146 1   
   149  140  147 1   
   150  148  149 1   
   151  148  157 1   
   152  149  150 1   
   153  149  152 1   
   154  149  158 1   
   155  150  151 2   
   156  150  163 1   
   157  152  153 1   
   158  152  159 1   
   159  152  160 1   
   160  153  154 1   
   161  153  161 1   
   162  153  162 1   
   163  154  155 1   
   164  154  156 1   
   165  163  164 1   
   166  163  168 1   
   167  164  165 1   
   168  164  166 1   
   169  164  167 1   
   170  170  171 1   
   171  170  172 1   
   172  173  174 1   
   173  173  175 1   
   174  176  177 1   
   175  176  178 1   
   176  179  180 1   
   177  179  181 1   
   178  182  183 1   
   179  182  184 1   
@<TRIPOS>SUBSTRUCTURE
     1 MOL         1 TEMP              0 ****  ****    0 ROOT
