@<TRIPOS>MOLECULE
MOL
  181   177     1     0     0
SMALL
resp


@<TRIPOS>ATOM
      1 C1         -3.4440   -1.5150   -4.0020 c3        1 MOL     -0.316510
      2 C2         -4.5420   -0.5620   -3.4140 c         1 MOL      0.677919
      3 O1         -4.2170    0.4560   -2.7770 o         1 MOL     -0.559636
      4 H1         -2.5650   -0.9300   -4.2780 hc        1 MOL      0.079385
      5 H2         -3.1660   -2.2550   -3.2540 hc        1 MOL      0.079385
      6 H3         -3.8350   -2.0200   -4.8860 hc        1 MOL      0.079385
      7 N1         -5.8400   -0.8780   -3.5240 n         1 MOL     -0.673396
      8 C3         -6.8990    0.0060   -3.0150 c3        1 MOL      0.380678
      9 C4         -7.3830   -0.2900   -1.5350 c         1 MOL      0.548134
     10 O2         -7.5110   -1.4340   -1.1030 o         1 MOL     -0.608403
     11 C5         -8.1150   -0.0060   -4.0420 c3        1 MOL     -0.390233
     12 C6         -8.9930    1.2680   -3.6770 c         1 MOL      0.805099
     13 O3        -10.1590    1.1050   -3.2630 o         1 MOL     -0.738050
     14 O4         -8.5480    2.3730   -3.8840 o         1 MOL     -0.738050
     15 H4         -6.0840   -1.7440   -3.9910 hn        1 MOL      0.312834
     16 H5         -6.4560    1.0060   -3.0570 h1        1 MOL      0.013118
     17 H6         -8.5320   -1.0040   -3.9040 hc        1 MOL      0.053542
     18 H7         -7.7120    0.0040   -5.0520 hc        1 MOL      0.053542
     19 N2         -7.7000    0.7190   -0.7700 n         1 MOL     -0.566201
     20 C7         -7.8230    0.8030    0.6850 c3        1 MOL      0.456881
     21 C8         -6.4600    0.9870    1.3630 c         1 MOL      0.455195
     22 O5         -5.4610    1.3610    0.6880 o         1 MOL     -0.555536
     23 C9         -8.8420    1.9120    1.1650 c3        1 MOL     -0.528176
     24 H8         -7.8490    1.5620   -1.3110 hn        1 MOL      0.293990
     25 H9         -8.1570   -0.1330    1.1220 h1        1 MOL     -0.003526
     26 H10        -8.8370    2.0580    2.2460 hc        1 MOL      0.133768
     27 H11        -8.3730    2.8390    0.8270 hc        1 MOL      0.133768
     28 H12        -9.8130    1.9080    0.6850 hc        1 MOL      0.133768
     29 N3         -6.3500    0.5650    2.6430 n         1 MOL     -0.462602
     30 C10        -5.0530    0.1940    3.3310 c3        1 MOL      0.069518
     31 C11        -4.5420    1.1690    4.3710 c         1 MOL      0.481017
     32 O6         -5.1470    1.4480    5.4080 o         1 MOL     -0.542698
     33 C12        -5.1990   -1.2550    3.8670 c3        1 MOL     -0.110609
     34 C13        -3.8510   -1.8850    4.1430 c         1 MOL      0.608105
     35 O7         -3.2590   -1.6360    5.2390 o         1 MOL     -0.683266
     36 O8         -3.2600   -2.4670    3.2320 o         1 MOL     -0.683266
     37 H13        -7.2170    0.4430    3.1660 hn        1 MOL      0.258709
     38 H14        -4.2770    0.1590    2.5590 h1        1 MOL      0.113551
     39 H15        -5.7610   -1.8540    3.1480 hc        1 MOL      0.014881
     40 H16        -5.6910   -1.1750    4.8450 hc        1 MOL      0.014881
     41 N4         -3.3590    1.6780    4.1540 n         1 MOL     -0.192863
     42 C14        -2.8870    2.8950    4.9360 c3        1 MOL     -0.408939
     43 C15        -1.5130    3.5260    4.6850 c         1 MOL      0.717413
     44 O9         -1.1630    4.5360    5.2320 o         1 MOL     -0.548980
     45 H17        -2.9050    1.4760    3.2700 hn        1 MOL      0.191628
     46 H18        -3.0610    2.6090    5.9730 h1        1 MOL      0.169279
     47 H19        -3.6110    3.6490    4.6320 h1        1 MOL      0.169279
     48 N5         -0.7320    2.8980    3.7350 n         1 MOL     -0.460991
     49 C16         0.6020    3.3960    3.4060 c3        1 MOL      0.085876
     50 C17         0.6090    4.6310    2.4970 c         1 MOL      0.435203
     51 O10        -0.4560    4.9520    1.8810 o         1 MOL     -0.489813
     52 C18         1.3280    2.3100    2.5380 c3        1 MOL     -0.491380
     53 C19         2.8310    2.5560    2.3310 c         1 MOL      0.677609
     54 N6          3.5090    2.8730    3.3710 n         1 MOL     -0.706300
     55 O11         3.3790    2.4510    1.2860 o         1 MOL     -0.533354
     56 H20        -1.0140    2.0340    3.3070 hn        1 MOL      0.330846
     57 H21         1.1670    3.7130    4.2830 h1        1 MOL      0.032938
     58 H22         0.8040    2.1510    1.5910 hc        1 MOL      0.174620
     59 H23         1.3650    1.3620    3.0660 hc        1 MOL      0.174620
     60 H24         3.0580    2.9530    4.2820 hn        1 MOL      0.340108
     61 H25         4.5110    2.9800    3.3400 hn        1 MOL      0.340108
     62 N7          1.7170    5.3820    2.3100 n         1 MOL     -0.250402
     63 C20         1.9140    6.6020    1.4790 c3        1 MOL     -0.048042
     64 C21         3.2310    6.4550    0.6520 c         1 MOL      0.461752
     65 O12         4.2620    6.2530    1.2370 o         1 MOL     -0.488181
     66 H26         2.4770    5.1610    2.9500 hn        1 MOL      0.195990
     67 H27         1.7770    7.5500    2.0020 h1        1 MOL      0.069391
     68 H28         1.0770    6.6490    0.7750 h1        1 MOL      0.069391
     69 N8          3.0470    6.4900   -0.6720 n         1 MOL     -0.409829
     70 C22         3.9830    6.1820   -1.7240 c3        1 MOL      0.030204
     71 C23         3.7110    4.8170   -2.2520 c         1 MOL      0.600506
     72 O13         4.6560    4.2570   -2.7580 o         1 MOL     -0.585925
     73 C24         4.2120    7.1740   -2.8400 c3        1 MOL      0.356746
     74 C25         3.2920    7.1960   -4.0820 c3        1 MOL     -0.230842
     75 O14         4.1150    8.5050   -2.3620 oh        1 MOL     -0.629971
     76 H29         2.1160    6.7410   -0.9640 hn        1 MOL      0.238589
     77 H30         4.9940    6.0610   -1.3420 h1        1 MOL      0.090536
     78 H31         5.2500    6.9640   -3.0890 h1        1 MOL      0.039622
     79 H32         3.2630    8.6180   -1.9430 ho        1 MOL      0.360747
     80 H33         3.5490    6.2770   -4.5970 hc        1 MOL      0.050912
     81 H34         2.2250    7.0640   -3.8600 hc        1 MOL      0.050912
     82 H35         3.4020    8.0750   -4.7120 hc        1 MOL      0.050912
     83 N9          2.4740    4.2370   -2.1240 n         1 MOL     -0.480599
     84 C26         2.0830    2.8880   -2.6140 c3        1 MOL      0.247388
     85 C27         1.3980    2.0300   -1.5470 c         1 MOL      0.228062
     86 O15         0.4010    2.3920   -0.9250 o         1 MOL     -0.422540
     87 C28         1.4130    2.9510   -3.9540 c3        1 MOL      0.061311
     88 C29        -0.0780    3.5260   -3.8860 c3        1 MOL      0.013589
     89 C30         2.1430    3.7090   -5.0310 c3        1 MOL     -0.404441
     90 C31        -0.2660    4.9210   -3.3430 c3        1 MOL     -0.119260
     91 H36         1.7810    4.7130   -1.5610 hn        1 MOL      0.276280
     92 H37         3.0520    2.4500   -2.8380 h1        1 MOL      0.065741
     93 H38         1.4380    1.9200   -4.2960 hc        1 MOL      0.025877
     94 H39        -0.7410    2.9220   -3.2610 hc        1 MOL      0.037021
     95 H40        -0.5030    3.4870   -4.8920 hc        1 MOL      0.037021
     96 H41         2.0870    3.1390   -5.9550 hc        1 MOL      0.093514
     97 H42         1.8240    4.7510   -5.1200 hc        1 MOL      0.093514
     98 H43         3.2080    3.7200   -4.7690 hc        1 MOL      0.093514
     99 H44        -0.0110    5.0280   -2.2940 hc        1 MOL      0.026155
    100 H45         0.2090    5.6740   -3.9780 hc        1 MOL      0.026155
    101 H46        -1.3380    5.1180   -3.4190 hc        1 MOL      0.026155
    102 N10         1.8380    0.8010   -1.2870 n         1 MOL     -0.520819
    103 C32         1.1990   -0.1440   -0.3840 c3        1 MOL      0.452362
    104 C33         2.2710   -0.9490    0.4690 c         1 MOL      0.318249
    105 O16         2.0860   -2.1120    0.8570 o         1 MOL     -0.456653
    106 C34         0.3920   -1.0950   -1.2560 c3        1 MOL     -0.036344
    107 C35        -0.7510   -1.8710   -0.5330 c         1 MOL      0.702029
    108 O17        -1.3970   -2.7650   -1.1180 o         1 MOL     -0.712406
    109 O18        -0.9620   -1.6370    0.6660 o         1 MOL     -0.712406
    110 H47         2.7450    0.5120   -1.6200 hn        1 MOL      0.251473
    111 H48         0.4630    0.2520    0.3110 h1        1 MOL     -0.007514
    112 H49         0.9710   -1.7650   -1.8890 hc        1 MOL     -0.021143
    113 H50        -0.2470   -0.5280   -1.9210 hc        1 MOL     -0.021143
    114 N11         3.4440   -0.3630    0.7480 n         1 MOL     -0.335985
    115 C36         4.6210   -1.0290    1.2160 c3        1 MOL      0.069258
    116 C37         4.8630   -2.3240    0.3370 c         1 MOL      0.399576
    117 O19         4.8480   -2.2240   -0.8840 o         1 MOL     -0.501325
    118 C38         5.7770   -0.0070    1.1690 c3        1 MOL     -0.207069
    119 C39         7.1760   -0.5970    1.2320 ca        1 MOL      0.043650
    120 C40         7.8280   -0.6920    2.4820 ca        1 MOL     -0.102568
    121 C41         7.8070   -1.0410    0.0580 ca        1 MOL     -0.102568
    122 C42         9.1740   -1.0840    2.5890 ca        1 MOL     -0.184298
    123 C43         9.1700   -1.5830    0.1420 ca        1 MOL     -0.184298
    124 C44         9.8000   -1.5760    1.4460 ca        1 MOL     -0.052478
    125 H51         3.6030    0.6040    0.5070 hn        1 MOL      0.258099
    126 H52         4.4460   -1.2700    2.2640 h1        1 MOL      0.050405
    127 H53         5.6280    0.7160    1.9680 hc        1 MOL      0.090219
    128 H54         5.5740    0.4980    0.2270 hc        1 MOL      0.090219
    129 H55         7.3280   -0.1960    3.2960 ha        1 MOL      0.112540
    130 H56         7.3470   -1.2120   -0.9040 ha        1 MOL      0.112540
    131 H57         9.7180   -1.0500    3.5150 ha        1 MOL      0.131398
    132 H58         9.7470   -1.8220   -0.7380 ha        1 MOL      0.131398
    133 H59        10.8360   -1.8390    1.6210 ha        1 MOL      0.077837
    134 N12         5.1250   -3.4930    0.9380 n         1 MOL      0.001865
    135 C45         5.6240   -4.5970    0.0940 c3        1 MOL      0.062645
    136 C46         4.7280   -5.2190   -1.0060 c         1 MOL      0.356218
    137 O20         5.2080   -5.6870   -2.0560 o         1 MOL     -0.550094
    138 C47         6.0320   -5.7400    1.0270 c3        1 MOL     -0.145431
    139 C48         6.2480   -4.9230    2.3370 c3        1 MOL      0.103118
    140 C49         5.2390   -3.7570    2.3370 c3        1 MOL     -0.098337
    141 H60         6.4870   -4.2280   -0.4610 h1        1 MOL      0.052042
    142 H61         5.1760   -6.3370    1.3030 hc        1 MOL      0.065278
    143 H62         6.8600   -6.3400    0.6410 hc        1 MOL      0.065278
    144 H63         6.1910   -5.5850    3.1960 hc        1 MOL     -0.022201
    145 H64         7.2520   -4.4890    2.3940 hc        1 MOL     -0.022201
    146 H65         4.2870   -4.1240    2.7260 h1        1 MOL      0.045208
    147 H66         5.5810   -2.8870    2.8870 h1        1 MOL      0.045208
    148 N13         3.4330   -5.0280   -0.9150 n         1 MOL     -0.197517
    149 C50         2.4830   -5.6700   -1.7950 c3        1 MOL     -0.171499
    150 C51         2.5640   -5.3140   -3.2580 c         1 MOL      0.461719
    151 O21         2.0670   -6.1050   -4.0690 o         1 MOL     -0.551198
    152 C52         1.0670   -5.3110   -1.3130 c3        1 MOL      0.022943
    153 C53         0.7590   -5.7630    0.1250 c3        1 MOL     -0.235905
    154 C54        -0.6050   -5.2070    0.5910 c         1 MOL      0.814747
    155 O22        -0.8040   -4.5570    1.6000 o         1 MOL     -0.764767
    156 O23        -1.5920   -5.5220   -0.0470 o         1 MOL     -0.764767
    157 H67         2.9780   -4.4860   -0.1850 hn        1 MOL      0.211406
    158 H68         2.6840   -6.7380   -1.8420 h1        1 MOL      0.129503
    159 H69         0.3620   -5.7830   -2.0030 hc        1 MOL      0.055224
    160 H70         0.9520   -4.2300   -1.4050 hc        1 MOL      0.055224
    161 H71         1.4970   -5.4100    0.8460 hc        1 MOL      0.031581
    162 H72         0.7460   -6.8530    0.1310 hc        1 MOL      0.031581
    163 N14         3.2840   -4.2330   -3.6710 n         1 MOL     -0.108338
    164 C55         3.2850   -3.7390   -5.0260 c3        1 MOL     -0.268558
    165 H73         4.2460   -3.9600   -5.4910 h1        1 MOL      0.096427
    166 H74         2.4890   -4.2250   -5.5910 h1        1 MOL      0.096427
    167 H75         3.1240   -2.6620   -5.0210 h1        1 MOL      0.096427
    168 H76         3.6600   -3.6060   -2.9850 hn        1 MOL      0.198301
    169 Ca1        -3.0150   -3.4790    0.8040 Ca        1 MOL      1.687196
    170 O24        -3.6320   -0.9230   -0.0430 oh        1 MOL     -0.803512
    171 H77        -3.2910   -0.2000    0.4820 ho        1 MOL      0.393973
    172 H78        -4.1350   -0.5000   -0.7390 ho        1 MOL      0.393973
    173 O25        -3.9130   -5.7350    1.9190 oh        1 MOL     -0.803512
    174 H79        -4.2570   -5.8810    2.7970 ho        1 MOL      0.393973
    175 H80        -3.6980   -6.6110    1.5940 ho        1 MOL      0.393973
    176 O26        -4.0420   -4.5370   -1.4050 oh        1 MOL     -0.803512
    177 H81        -3.7990   -4.7930   -2.3020 ho        1 MOL      0.393973
    178 H82        -4.9590   -4.7920   -1.3180 ho        1 MOL      0.393973
    179 O27        -5.7460   -3.2110    0.6550 oh        1 MOL     -0.803512
    180 H83        -6.2180   -2.4810    0.2490 ho        1 MOL      0.393973
    181 H84        -6.1390   -3.9970    0.2630 ho        1 MOL      0.393973
@<TRIPOS>BOND
     1    1    2 1   
     2    1    4 1   
     3    1    5 1   
     4    1    6 1   
     5    2    3 2   
     6    2    7 1   
     7    7    8 1   
     8    7   15 1   
     9    8    9 1   
    10    8   11 1   
    11    8   16 1   
    12    9   10 2   
    13    9   19 1   
    14   11   12 1   
    15   11   17 1   
    16   11   18 1   
    17   12   13 1   
    18   12   14 1   
    19   19   20 1   
    20   19   24 1   
    21   20   21 1   
    22   20   23 1   
    23   20   25 1   
    24   21   22 2   
    25   21   29 1   
    26   23   26 1   
    27   23   27 1   
    28   23   28 1   
    29   29   30 1   
    30   29   37 1   
    31   30   31 1   
    32   30   33 1   
    33   30   38 1   
    34   31   32 2   
    35   31   41 1   
    36   33   34 1   
    37   33   39 1   
    38   33   40 1   
    39   34   35 1   
    40   34   36 1   
    41   41   42 1   
    42   41   45 1   
    43   42   43 1   
    44   42   46 1   
    45   42   47 1   
    46   43   44 2   
    47   43   48 1   
    48   48   49 1   
    49   48   56 1   
    50   49   50 1   
    51   49   52 1   
    52   49   57 1   
    53   50   51 2   
    54   50   62 1   
    55   52   53 1   
    56   52   58 1   
    57   52   59 1   
    58   53   54 1   
    59   53   55 2   
    60   54   60 1   
    61   54   61 1   
    62   62   63 1   
    63   62   66 1   
    64   63   64 1   
    65   63   67 1   
    66   63   68 1   
    67   64   65 2   
    68   64   69 1   
    69   69   70 1   
    70   69   76 1   
    71   70   71 1   
    72   70   73 1   
    73   70   77 1   
    74   71   72 2   
    75   71   83 1   
    76   73   74 1   
    77   73   75 1   
    78   73   78 1   
    79   74   80 1   
    80   74   81 1   
    81   74   82 1   
    82   75   79 1   
    83   83   84 1   
    84   83   91 1   
    85   84   85 1   
    86   84   87 1   
    87   84   92 1   
    88   85   86 2   
    89   85  102 1   
    90   87   88 1   
    91   87   89 1   
    92   87   93 1   
    93   88   90 1   
    94   88   94 1   
    95   88   95 1   
    96   89   96 1   
    97   89   97 1   
    98   89   98 1   
    99   90   99 1   
   100   90  100 1   
   101   90  101 1   
   102  102  103 1   
   103  102  110 1   
   104  103  104 1   
   105  103  106 1   
   106  103  111 1   
   107  104  105 2   
   108  104  114 1   
   109  106  107 1   
   110  106  112 1   
   111  106  113 1   
   112  107  108 1   
   113  107  109 1   
   114  114  115 1   
   115  114  125 1   
   116  115  116 1   
   117  115  118 1   
   118  115  126 1   
   119  116  117 2   
   120  116  134 1   
   121  118  119 1   
   122  118  127 1   
   123  118  128 1   
   124  119  120 ar  
   125  119  121 ar  
   126  120  122 ar  
   127  120  129 1   
   128  121  123 ar  
   129  121  130 1   
   130  122  124 ar  
   131  122  131 1   
   132  123  124 ar  
   133  123  132 1   
   134  124  133 1   
   135  134  135 1   
   136  134  140 1   
   137  135  136 1   
   138  135  138 1   
   139  135  141 1   
   140  136  137 2   
   141  136  148 1   
   142  138  139 1   
   143  138  142 1   
   144  138  143 1   
   145  139  140 1   
   146  139  144 1   
   147  139  145 1   
   148  140  146 1   
   149  140  147 1   
   150  148  149 1   
   151  148  157 1   
   152  149  150 1   
   153  149  152 1   
   154  149  158 1   
   155  150  151 2   
   156  150  163 1   
   157  152  153 1   
   158  152  159 1   
   159  152  160 1   
   160  153  154 1   
   161  153  161 1   
   162  153  162 1   
   163  154  155 1   
   164  154  156 1   
   165  163  164 1   
   166  163  168 1   
   167  164  165 1   
   168  164  166 1   
   169  164  167 1   
   170  170  171 1   
   171  170  172 1   
   172  173  174 1   
   173  173  175 1   
   174  176  177 1   
   175  176  178 1   
   176  179  180 1   
   177  179  181 1   
@<TRIPOS>SUBSTRUCTURE
     1 MOL         1 TEMP              0 ****  ****    0 ROOT
