@<TRIPOS>MOLECULE
MOL
  192   187     1     0     0
SMALL
resp


@<TRIPOS>ATOM
      1 C1         12.5850    4.0110   -3.1210 c3        1 MOL     -0.262517
      2 C2         12.1060    2.8520   -2.1610 c         1 MOL      0.650526
      3 O1         12.7540    1.8220   -2.0580 o         1 MOL     -0.570458
      4 H1         12.3430    3.7530   -4.1510 hc        1 MOL      0.069633
      5 H2         12.0790    4.9380   -2.8520 hc        1 MOL      0.069633
      6 H3         13.6630    4.1430   -3.0230 hc        1 MOL      0.069633
      7 N1         10.9700    3.1040   -1.4800 n         1 MOL     -0.379489
      8 C3         10.3270    2.1910   -0.4780 c3        1 MOL     -0.045837
      9 C4          8.8320    1.9350   -0.7910 c         1 MOL      0.645345
     10 O2          8.0590    2.9130   -0.8300 o         1 MOL     -0.670982
     11 C5         10.5710    2.7330    0.9340 c3        1 MOL     -0.354659
     12 C6         10.6310    4.2170    1.0560 c         1 MOL      0.877848
     13 O3         11.3070    4.7610    1.9780 o         1 MOL     -0.752045
     14 O4          9.9360    4.9090    0.3310 o         1 MOL     -0.752045
     15 H4         10.4430    3.9590   -1.4980 hn        1 MOL      0.163999
     16 H5         10.6900    1.1590   -0.5080 h1        1 MOL      0.056722
     17 H6         11.6280    2.5180    1.0880 hc        1 MOL      0.123091
     18 H7          9.8740    2.2010    1.5930 hc        1 MOL      0.123091
     19 N2          8.4650    0.6480   -0.9870 n         1 MOL     -0.519309
     20 C7          7.0460    0.2750   -1.3900 c3        1 MOL      0.015747
     21 C8          6.1050    0.7350   -0.2940 c         1 MOL      0.350915
     22 O5          6.5360    0.9790    0.8180 o         1 MOL     -0.378237
     23 C9          7.0420   -1.2730   -1.8450 c3        1 MOL     -0.247253
     24 C10         7.1550   -2.2260   -0.6590 c3        1 MOL      0.039286
     25 C11         7.0550   -3.7120   -1.0740 c3        1 MOL     -0.072171
     26 C12         7.2620   -4.5780    0.1030 c3        1 MOL      0.148285
     27 N3          7.0840   -6.0210   -0.3210 n4        1 MOL     -0.400982
     28 H8          9.1880   -0.0570   -0.9220 hn        1 MOL      0.331594
     29 H9          6.9340    0.8500   -2.3100 h1        1 MOL      0.124048
     30 H10         7.8830   -1.3610   -2.5270 hc        1 MOL      0.100676
     31 H11         6.0690   -1.3790   -2.3200 hc        1 MOL      0.100676
     32 H12         6.4000   -2.0820    0.1040 hc        1 MOL      0.045637
     33 H13         8.1010   -2.0020   -0.1620 hc        1 MOL      0.045637
     34 H14         7.8260   -3.9490   -1.7970 hc        1 MOL      0.027693
     35 H15         6.1250   -3.8000   -1.6400 hc        1 MOL      0.027693
     36 H16         6.5410   -4.2900    0.8750 hx        1 MOL      0.047205
     37 H17         8.2690   -4.4600    0.4950 hx        1 MOL      0.047205
     38 H18         6.2000   -6.1640   -0.7940 hn        1 MOL      0.307048
     39 H19         7.7320   -6.2810   -1.0500 hn        1 MOL      0.307048
     40 H20         6.9690   -6.6440    0.4680 hn        1 MOL      0.307048
     41 N4          4.8630    0.8610   -0.6530 n         1 MOL     -0.544001
     42 C13         3.7960    1.4170    0.2370 c3        1 MOL      0.455950
     43 C14         2.6060    0.5410    0.4060 c         1 MOL      0.425613
     44 O6          1.5330    0.9690    0.1900 o         1 MOL     -0.482022
     45 C15         3.4610    2.9210   -0.1710 c3        1 MOL     -0.592090
     46 C16         4.6800    3.8400   -0.1410 c         1 MOL      1.039359
     47 O7          5.1230    4.1410    0.9670 o         1 MOL     -0.814166
     48 O8          5.2720    4.2230   -1.1530 o         1 MOL     -0.814166
     49 H21         4.6330    0.7560   -1.6340 hn        1 MOL      0.310804
     50 H22         4.3030    1.4870    1.1910 h1        1 MOL      0.033302
     51 H23         2.6790    3.3120    0.4870 hc        1 MOL      0.137673
     52 H24         3.0250    2.9170   -1.1730 hc        1 MOL      0.137673
     53 N5          2.6970   -0.7840    0.7460 n         1 MOL     -0.415397
     54 C17         3.9200   -1.5180    0.9000 c3        1 MOL     -0.062351
     55 C18         3.7610   -2.8010    1.7760 c         1 MOL      0.473611
     56 O9          4.5390   -3.7320    1.4750 o         1 MOL     -0.487412
     57 H25         1.8530   -1.3190    0.9030 hn        1 MOL      0.316981
     58 H26         4.7020   -0.9760    1.4350 h1        1 MOL      0.035834
     59 H27         4.2820   -1.7850   -0.0990 h1        1 MOL      0.035834
     60 N6          2.7670   -2.7770    2.6700 n         1 MOL     -0.227151
     61 C19         2.5620   -3.9310    3.5620 c3        1 MOL     -0.072794
     62 C20         2.0020   -5.1500    2.8140 c         1 MOL      0.502710
     63 O10         0.7840   -5.2470    2.6660 o         1 MOL     -0.457733
     64 C21         1.5680   -3.4900    4.7050 c3        1 MOL     -0.117938
     65 C22         1.5090   -4.4040    5.8640 c         1 MOL      0.733364
     66 O11         0.5330   -4.1830    6.5900 o         1 MOL     -0.689438
     67 O12         2.3570   -5.2620    6.0690 o         1 MOL     -0.689438
     68 H28         2.2910   -1.8990    2.8660 hn        1 MOL      0.256922
     69 H29         3.5200   -4.2550    3.9720 h1        1 MOL      0.019299
     70 H30         0.5620   -3.4040    4.2960 hc        1 MOL      0.044227
     71 H31         1.8280   -2.4790    5.0070 hc        1 MOL      0.044227
     72 N7          2.8440   -6.0270    2.2130 n         1 MOL     -0.376578
     73 C23         2.3260   -7.0770    1.3220 c3        1 MOL     -0.120692
     74 C24         1.7900   -6.5610   -0.0260 c         1 MOL      0.391917
     75 O13         1.2260   -7.3860   -0.8000 o         1 MOL     -0.551940
     76 H32         3.8450   -5.9240    2.3100 hn        1 MOL      0.271731
     77 H33         1.5160   -7.6080    1.8240 h1        1 MOL      0.117377
     78 H34         3.1370   -7.7820    1.2030 h1        1 MOL      0.117377
     79 N8          1.8120   -5.2750   -0.3160 n         1 MOL      0.074933
     80 C25         1.2290   -4.5720   -1.4660 c3        1 MOL     -0.048834
     81 C26         0.5250   -3.3930   -0.9290 c         1 MOL      0.442806
     82 O14         0.7170   -3.0330    0.2680 o         1 MOL     -0.439958
     83 C27         2.3150   -4.2580   -2.4770 c3        1 MOL      0.141864
     84 C28         3.4290   -3.2780   -1.9620 c3        1 MOL     -0.346234
     85 O15         3.0780   -5.4310   -2.7890 oh        1 MOL     -0.594398
     86 H35         2.2190   -4.6740    0.3760 hn        1 MOL     -0.043467
     87 H36         0.5680   -5.3030   -1.9270 h1        1 MOL      0.109280
     88 H37         1.9400   -3.7590   -3.3630 h1        1 MOL      0.055942
     89 H38         3.3090   -5.3030   -3.7040 ho        1 MOL      0.398640
     90 H39         4.0620   -3.0290   -2.8160 hc        1 MOL      0.095775
     91 H40         2.9740   -2.3350   -1.6620 hc        1 MOL      0.095775
     92 H41         4.0070   -3.7490   -1.1720 hc        1 MOL      0.095775
     93 N9         -0.2950   -2.6630   -1.7390 n         1 MOL     -0.422200
     94 C29        -0.6120   -1.2950   -1.3900 c3        1 MOL      0.064284
     95 C30        -1.8950   -1.2270   -0.5240 c         1 MOL      0.479355
     96 O16        -1.9820   -0.4400    0.4450 o         1 MOL     -0.471857
     97 C31        -0.6810   -0.5030   -2.7410 c3        1 MOL      0.050498
     98 C32         0.6550   -0.4520   -3.5210 c3        1 MOL      0.015169
     99 C33        -1.0730    1.0040   -2.4250 c3        1 MOL     -0.278803
    100 C34         0.8760    0.4860   -4.6850 c3        1 MOL     -0.293605
    101 H42        -0.3780   -2.8870   -2.7180 hn        1 MOL      0.256101
    102 H43         0.1290   -0.8160   -0.7470 h1        1 MOL      0.013354
    103 H44        -1.5060   -0.9330   -3.3120 hc        1 MOL      0.018056
    104 H45         0.8450   -1.4590   -3.8820 hc        1 MOL      0.028760
    105 H46         1.4510   -0.3240   -2.7930 hc        1 MOL      0.028760
    106 H47        -1.1750    1.5230   -3.3670 hc        1 MOL      0.088501
    107 H48        -1.9440    1.2570   -1.8130 hc        1 MOL      0.088501
    108 H49        -0.2160    1.5020   -1.9760 hc        1 MOL      0.088501
    109 H50         1.7930    0.1910   -5.1930 hc        1 MOL      0.077105
    110 H51         0.0480    0.4250   -5.3860 hc        1 MOL      0.077105
    111 H52         0.9910    1.4760   -4.2480 hc        1 MOL      0.077105
    112 N10        -2.8920   -1.9980   -0.9590 n         1 MOL     -0.390330
    113 C35        -4.2910   -1.8640   -0.4970 c3        1 MOL     -0.028431
    114 C36        -5.2840   -2.2900   -1.5950 c         1 MOL      0.583263
    115 O17        -4.9350   -3.0240   -2.4750 o         1 MOL     -0.507184
    116 C37        -4.5730   -2.5740    0.7800 c3        1 MOL      0.450246
    117 C38        -4.4080   -4.0810    0.7210 c3        1 MOL     -0.432155
    118 O18        -3.7880   -2.1040    1.8000 oh        1 MOL     -0.621166
    119 H53        -2.6780   -2.6470   -1.6940 hn        1 MOL      0.220943
    120 H54        -4.4130   -0.7850   -0.4140 h1        1 MOL      0.092539
    121 H55        -5.6060   -2.4770    1.1050 h1        1 MOL      0.007156
    122 H56        -3.1100   -2.7680    1.9490 ho        1 MOL      0.421290
    123 H57        -5.0620   -4.4480   -0.0770 hc        1 MOL      0.107211
    124 H58        -3.3900   -4.4050    0.5010 hc        1 MOL      0.107211
    125 H59        -4.6000   -4.5260    1.6980 hc        1 MOL      0.107211
    126 N11        -6.5270   -1.7430   -1.4870 n         1 MOL     -0.530463
    127 C39        -7.7770   -2.1230   -2.1860 c3        1 MOL     -0.026403
    128 C40        -8.8620   -0.9620   -2.1770 c         1 MOL      0.567704
    129 O19        -9.5410   -0.7670   -3.1830 o         1 MOL     -0.551870
    130 C41        -8.4120   -3.3540   -1.6320 c3        1 MOL      0.246689
    131 C42        -9.7650   -3.8670   -2.1620 c3        1 MOL     -0.487601
    132 O20        -8.6550   -3.0970   -0.2860 oh        1 MOL     -0.646993
    133 H60        -6.5590   -1.1100   -0.6900 hn        1 MOL      0.248794
    134 H61        -7.5070   -2.3120   -3.2270 h1        1 MOL      0.127851
    135 H62        -7.5860   -4.0670   -1.7050 h1        1 MOL      0.065492
    136 H63        -8.9070   -3.8980    0.1900 ho        1 MOL      0.420807
    137 H64       -10.2280   -4.7560   -1.7420 hc        1 MOL      0.135718
    138 H65       -10.4970   -3.0610   -2.1490 hc        1 MOL      0.135718
    139 H66        -9.4670   -4.0840   -3.1870 hc        1 MOL      0.135718
    140 N12        -9.0100   -0.2470   -1.0640 n         1 MOL     -0.411680
    141 C43       -10.0280    0.7400   -0.7760 c3        1 MOL      0.006478
    142 C44        -9.5880    1.6820    0.3450 c         1 MOL      0.420693
    143 O21        -9.1120    1.1380    1.4030 o         1 MOL     -0.472674
    144 C45       -11.2990    0.0180   -0.3900 c3        1 MOL     -0.151735
    145 C46       -12.4860    0.9100   -0.8350 c3        1 MOL     -0.076176
    146 C47       -13.8060    0.1020   -0.5010 c3        1 MOL     -0.038562
    147 C48       -15.0550    0.8860   -0.9820 c3        1 MOL      0.147297
    148 N13       -16.1490   -0.0660   -0.9780 n4        1 MOL     -0.299695
    149 H67        -8.4920   -0.5870   -0.2600 hn        1 MOL      0.293868
    150 H68       -10.1390    1.3020   -1.7070 h1        1 MOL      0.078909
    151 H69       -11.2700   -0.2070    0.6770 hc        1 MOL      0.112726
    152 H70       -11.3580   -0.9340   -0.9220 hc        1 MOL      0.112726
    153 H71       -12.5800    0.9680   -1.9220 hc        1 MOL      0.044454
    154 H72       -12.4650    1.8900   -0.3640 hc        1 MOL      0.044454
    155 H73       -13.8870   -0.1880    0.5400 hc        1 MOL      0.029815
    156 H74       -13.6880   -0.8000   -1.0930 hc        1 MOL      0.029815
    157 H75       -14.8800    1.3330   -1.9540 hx        1 MOL      0.053858
    158 H76       -15.2740    1.7500   -0.3480 hx        1 MOL      0.053858
    159 H77       -16.9040    0.3150   -1.5440 hn        1 MOL      0.246004
    160 H78       -15.8790   -0.9220   -1.4410 hn        1 MOL      0.246004
    161 H79       -16.4460   -0.3570   -0.0520 hn        1 MOL      0.246004
    162 N14        -9.8720    3.0070    0.2730 n         1 MOL     -0.293563
    163 C49        -9.6300    3.9670    1.3390 c3        1 MOL      0.186113
    164 C50        -8.1250    4.0550    1.7160 c         1 MOL      0.503169
    165 O22        -7.6930    3.6270    2.7700 o         1 MOL     -0.555702
    166 C51       -10.1970    5.3150    0.9260 c3        1 MOL     -0.321854
    167 C52       -10.0330    6.2640    2.1350 c3        1 MOL     -0.114641
    168 C53       -10.8040    7.5680    1.8910 c         1 MOL      0.734514
    169 O23       -10.2660    8.3790    1.1120 o         1 MOL     -0.664281
    170 O24       -11.8310    7.8490    2.4910 o         1 MOL     -0.664281
    171 H80       -10.2610    3.4310   -0.5600 hn        1 MOL      0.225129
    172 H81       -10.0190    3.6430    2.3090 h1        1 MOL      0.041387
    173 H82       -11.2490    5.1720    0.6860 hc        1 MOL      0.089180
    174 H83        -9.6750    5.7550    0.0750 hc        1 MOL      0.089180
    175 H84        -8.9720    6.4180    2.3270 hc        1 MOL      0.030757
    176 H85       -10.4290    5.7690    3.0300 hc        1 MOL      0.030757
    177 N15        -7.1740    4.5940    1.0050 n         1 MOL     -0.370413
    178 C54        -7.1430    4.6590   -0.5040 c3        1 MOL      0.013655
    179 H86        -6.2760    4.1110   -0.8730 h1        1 MOL      0.030925
    180 H87        -8.0540    4.2130   -0.9060 h1        1 MOL      0.030925
    181 H88        -7.0770    5.7000   -0.8220 h1        1 MOL      0.030925
    182 H89        -6.2390    4.6750    1.3840 hn        1 MOL      0.302536
    183 Ca1         7.3870    5.2290   -0.2240 Ca        1 MOL      1.805765
    184 O25         7.7870    3.8820    2.3000 oh        1 MOL     -0.930298
    185 H90         7.1590    3.3380    2.7800 ho        1 MOL      0.454878
    186 H91         8.3530    4.2490    2.9790 ho        1 MOL      0.454878
    187 O26         7.3930    7.0160    1.6770 oh        1 MOL     -0.930298
    188 H92         7.8370    6.7730    2.4970 ho        1 MOL      0.454878
    189 H93         7.1020    7.9150    1.8130 ho        1 MOL      0.454878
    190 O27         5.7590    7.4510   -0.7340 oh        1 MOL     -0.930298
    191 H94         4.9430    7.6940   -0.3050 ho        1 MOL      0.454878
    192 H95         6.1440    8.2800   -1.0230 ho        1 MOL      0.454878
@<TRIPOS>BOND
     1    1    2 1   
     2    1    4 1   
     3    1    5 1   
     4    1    6 1   
     5    2    3 2   
     6    2    7 1   
     7    7    8 1   
     8    7   15 1   
     9    8    9 1   
    10    8   11 1   
    11    8   16 1   
    12    9   10 2   
    13    9   19 1   
    14   11   12 1   
    15   11   17 1   
    16   11   18 1   
    17   12   13 1   
    18   12   14 1   
    19   19   20 1   
    20   19   28 1   
    21   20   21 1   
    22   20   23 1   
    23   20   29 1   
    24   21   22 2   
    25   21   41 1   
    26   23   24 1   
    27   23   30 1   
    28   23   31 1   
    29   24   25 1   
    30   24   32 1   
    31   24   33 1   
    32   25   26 1   
    33   25   34 1   
    34   25   35 1   
    35   26   27 1   
    36   26   36 1   
    37   26   37 1   
    38   27   38 1   
    39   27   39 1   
    40   27   40 1   
    41   41   42 1   
    42   41   49 1   
    43   42   43 1   
    44   42   45 1   
    45   42   50 1   
    46   43   44 2   
    47   43   53 1   
    48   45   46 1   
    49   45   51 1   
    50   45   52 1   
    51   46   47 1   
    52   46   48 1   
    53   53   54 1   
    54   53   57 1   
    55   54   55 1   
    56   54   58 1   
    57   54   59 1   
    58   55   56 2   
    59   55   60 1   
    60   60   61 1   
    61   60   68 1   
    62   61   62 1   
    63   61   64 1   
    64   61   69 1   
    65   62   63 2   
    66   62   72 1   
    67   64   65 1   
    68   64   70 1   
    69   64   71 1   
    70   65   66 1   
    71   65   67 1   
    72   72   73 1   
    73   72   76 1   
    74   73   74 1   
    75   73   77 1   
    76   73   78 1   
    77   74   75 2   
    78   74   79 1   
    79   79   80 1   
    80   79   86 1   
    81   80   81 1   
    82   80   83 1   
    83   80   87 1   
    84   81   82 2   
    85   81   93 1   
    86   83   84 1   
    87   83   85 1   
    88   83   88 1   
    89   84   90 1   
    90   84   91 1   
    91   84   92 1   
    92   85   89 1   
    93   93   94 1   
    94   93  101 1   
    95   94   95 1   
    96   94   97 1   
    97   94  102 1   
    98   95   96 2   
    99   95  112 1   
   100   97   98 1   
   101   97   99 1   
   102   97  103 1   
   103   98  100 1   
   104   98  104 1   
   105   98  105 1   
   106   99  106 1   
   107   99  107 1   
   108   99  108 1   
   109  100  109 1   
   110  100  110 1   
   111  100  111 1   
   112  112  113 1   
   113  112  119 1   
   114  113  114 1   
   115  113  116 1   
   116  113  120 1   
   117  114  115 2   
   118  114  126 1   
   119  116  117 1   
   120  116  118 1   
   121  116  121 1   
   122  117  123 1   
   123  117  124 1   
   124  117  125 1   
   125  118  122 1   
   126  126  127 1   
   127  126  133 1   
   128  127  128 1   
   129  127  130 1   
   130  127  134 1   
   131  128  129 2   
   132  128  140 1   
   133  130  131 1   
   134  130  132 1   
   135  130  135 1   
   136  131  137 1   
   137  131  138 1   
   138  131  139 1   
   139  132  136 1   
   140  140  141 1   
   141  140  149 1   
   142  141  142 1   
   143  141  144 1   
   144  141  150 1   
   145  142  143 2   
   146  142  162 1   
   147  144  145 1   
   148  144  151 1   
   149  144  152 1   
   150  145  146 1   
   151  145  153 1   
   152  145  154 1   
   153  146  147 1   
   154  146  155 1   
   155  146  156 1   
   156  147  148 1   
   157  147  157 1   
   158  147  158 1   
   159  148  159 1   
   160  148  160 1   
   161  148  161 1   
   162  162  163 1   
   163  162  171 1   
   164  163  164 1   
   165  163  166 1   
   166  163  172 1   
   167  164  165 2   
   168  164  177 1   
   169  166  167 1   
   170  166  173 1   
   171  166  174 1   
   172  167  168 1   
   173  167  175 1   
   174  167  176 1   
   175  168  169 1   
   176  168  170 1   
   177  177  178 1   
   178  177  182 1   
   179  178  179 1   
   180  178  180 1   
   181  178  181 1   
   182  184  185 1   
   183  184  186 1   
   184  187  188 1   
   185  187  189 1   
   186  190  191 1   
   187  190  192 1   
@<TRIPOS>SUBSTRUCTURE
     1 MOL         1 TEMP              0 ****  ****    0 ROOT
