@<TRIPOS>MOLECULE
MOL
  182   178     1     0     0
SMALL
resp


@<TRIPOS>ATOM
      1 C1          0.3440   -3.4880    6.6990 c3        1 MOL     -0.391545
      2 C2          0.3580   -3.4030    5.1390 c         1 MOL      0.765835
      3 O1         -0.5340   -3.5690    4.3690 o         1 MOL     -0.580398
      4 H1         -0.5910   -3.0720    7.0760 hc        1 MOL      0.114594
      5 H2          0.4270   -4.5300    7.0070 hc        1 MOL      0.114594
      6 H3          1.1820   -2.9210    7.1020 hc        1 MOL      0.114594
      7 N1          1.5760   -3.1050    4.6520 n         1 MOL     -0.658188
      8 C3          1.8700   -2.9120    3.2180 c3        1 MOL     -0.000529
      9 C4          2.0490   -4.2360    2.5320 c         1 MOL      0.696136
     10 O2          2.5340   -5.2270    3.0220 o         1 MOL     -0.575710
     11 C5          3.0940   -1.9770    3.0180 c3        1 MOL     -0.040477
     12 C6          3.2310   -1.3910    1.6110 c         1 MOL      0.327978
     13 O3          4.0260   -0.4200    1.4650 o         1 MOL     -0.573728
     14 O4          2.5310   -1.8850    0.7130 o         1 MOL     -0.573728
     15 H4          2.2540   -3.0320    5.3900 hn        1 MOL      0.336756
     16 H5          1.0440   -2.3680    2.7480 h1        1 MOL      0.049630
     17 H6          3.9900   -2.5680    3.2030 hc        1 MOL      0.066432
     18 H7          2.9970   -1.1360    3.7090 hc        1 MOL      0.066432
     19 N2          1.7670   -4.3190    1.2320 n         1 MOL     -0.400614
     20 C7          1.8380   -5.4880    0.2800 c3        1 MOL     -0.096188
     21 C8          3.0940   -5.5990   -0.6330 c         1 MOL      0.547183
     22 O5          3.5060   -6.7280   -0.8960 o         1 MOL     -0.564012
     23 C9          0.4730   -5.4600   -0.4730 c3        1 MOL      0.073112
     24 C10         0.1640   -6.7390   -1.2760 c3        1 MOL     -0.052330
     25 C11        -1.2990   -6.5350   -1.8280 c3        1 MOL     -0.104872
     26 C12        -1.5610   -7.7750   -2.7750 c3        1 MOL      0.184739
     27 N3         -3.0080   -8.0410   -2.8560 n4        1 MOL     -0.324129
     28 H8          1.5920   -3.4240    0.8050 hn        1 MOL      0.204593
     29 H9          1.8140   -6.3520    0.9430 h1        1 MOL      0.120220
     30 H10         0.4910   -4.6930   -1.2610 hc        1 MOL      0.004629
     31 H11        -0.3170   -5.1830    0.2230 hc        1 MOL      0.004629
     32 H12         0.0600   -7.5940   -0.6100 hc        1 MOL      0.042629
     33 H13         0.8480   -6.9160   -2.0950 hc        1 MOL      0.042629
     34 H14        -1.5090   -5.6780   -2.4600 hc        1 MOL      0.049242
     35 H15        -1.9920   -6.4740   -0.9900 hc        1 MOL      0.049242
     36 H16        -1.0190   -8.6640   -2.4770 hx        1 MOL      0.044173
     37 H17        -1.2140   -7.6090   -3.7940 hx        1 MOL      0.044173
     38 H18        -3.5080   -7.2860   -3.2940 hn        1 MOL      0.275308
     39 H19        -3.2800   -8.8260   -3.4330 hn        1 MOL      0.275308
     40 H20        -3.3930   -8.1410   -1.9280 hn        1 MOL      0.275308
     41 N4          3.5930   -4.4820   -1.0910 n         1 MOL     -0.332822
     42 C13         4.8560   -4.2760   -1.7440 c3        1 MOL      0.093693
     43 C14         5.9620   -3.6700   -0.9290 c         1 MOL      0.455580
     44 O6          7.1050   -3.8860   -1.2710 o         1 MOL     -0.536033
     45 C15         4.5500   -3.5350   -3.0380 c3        1 MOL     -0.359208
     46 C16         3.8670   -2.1830   -2.8730 c         1 MOL      0.657395
     47 O7          2.9010   -1.7570   -3.5820 o         1 MOL     -0.684263
     48 O8          4.1700   -1.3860   -1.9190 o         1 MOL     -0.684263
     49 H21         3.1830   -3.6400   -0.7210 hn        1 MOL      0.247420
     50 H22         5.2290   -5.1980   -2.1760 h1        1 MOL      0.105536
     51 H23         3.9790   -4.1160   -3.7690 hc        1 MOL      0.121827
     52 H24         5.5080   -3.3610   -3.5380 hc        1 MOL      0.121827
     53 N5          5.6580   -2.9630    0.1530 n         1 MOL     -0.218069
     54 C17         6.6750   -2.3000    0.9730 c3        1 MOL     -0.085596
     55 C18         7.2800   -1.0810    0.3110 c         1 MOL      0.568535
     56 O9          8.2400   -0.5240    0.8270 o         1 MOL     -0.558879
     57 H25         4.6980   -2.7050    0.3190 hn        1 MOL      0.114925
     58 H26         7.5100   -2.9580    1.1940 h1        1 MOL      0.090536
     59 H27         6.2400   -2.0120    1.9390 h1        1 MOL      0.090536
     60 N6          6.5440   -0.5480   -0.7320 n         1 MOL     -0.323274
     61 C19         6.9010    0.6400   -1.4470 c3        1 MOL     -0.074272
     62 C20         5.9020    1.7980   -1.0690 c         1 MOL      0.526485
     63 O10         4.6720    1.7050   -0.9840 o         1 MOL     -0.505238
     64 C21         6.6900    0.3040   -2.8850 c3        1 MOL     -0.006241
     65 C22         7.4840    1.1360   -3.7970 c         1 MOL      0.555167
     66 N7          8.2450    0.4650   -4.6490 n         1 MOL     -0.729663
     67 O11         7.6180    2.3720   -3.6810 o         1 MOL     -0.550220
     68 H28         5.6780   -0.9900   -0.9810 hn        1 MOL      0.244616
     69 H29         7.9690    0.8430   -1.3120 h1        1 MOL      0.112031
     70 H30         5.6330    0.3730   -3.1500 hc        1 MOL      0.006003
     71 H31         6.9840   -0.7150   -3.1010 hc        1 MOL      0.006003
     72 H32         8.1520   -0.5330   -4.7510 hn        1 MOL      0.347629
     73 H33         8.8830    0.8710   -5.3190 hn        1 MOL      0.347629
     74 N8          6.4920    2.9850   -0.8650 n         1 MOL     -0.336390
     75 C23         5.8100    4.3310   -1.0250 c3        1 MOL     -0.102741
     76 C24         4.7720    4.6120    0.0300 c         1 MOL      0.524353
     77 O12         5.1240    4.5800    1.1680 o         1 MOL     -0.493139
     78 H34         7.5010    3.0030   -0.9730 hn        1 MOL      0.286190
     79 H35         5.3590    4.4570   -2.0010 h1        1 MOL      0.073772
     80 H36         6.5770    5.0790   -0.8460 h1        1 MOL      0.073772
     81 N9          3.5120    4.4940   -0.3050 n         1 MOL     -0.493325
     82 C25         2.4040    4.5680    0.6870 c3        1 MOL      0.217919
     83 C26         1.8850    3.2030    1.1370 c         1 MOL      0.432292
     84 O13         2.5240    2.2060    0.8360 o         1 MOL     -0.418998
     85 C27         1.2680    5.4220    0.1200 c3        1 MOL     -0.320246
     86 C28         1.7370    6.8940   -0.0590 ca        1 MOL      0.115808
     87 C29         1.8710    7.7640    1.0690 ca        1 MOL     -0.159052
     88 C30         2.1150    7.3270   -1.3520 ca        1 MOL     -0.159052
     89 C31         2.1560    9.0930    0.9340 ca        1 MOL     -0.306404
     90 C32         2.3350    8.7380   -1.4980 ca        1 MOL     -0.306404
     91 C33         2.3030    9.6020   -0.3660 ca        1 MOL      0.426589
     92 O14         2.3570   10.9170   -0.4240 oh        1 MOL     -0.535731
     93 H37         3.2400    4.5150   -1.2720 hn        1 MOL      0.319021
     94 H38         2.8120    5.0480    1.5760 h1        1 MOL      0.060550
     95 H39         0.4440    5.3890    0.8390 hc        1 MOL      0.082885
     96 H40         0.9830    5.0970   -0.8810 hc        1 MOL      0.082885
     97 H41         1.7420    7.2800    2.0210 ha        1 MOL      0.133913
     98 H42         2.0780    6.6690   -2.2080 ha        1 MOL      0.133913
     99 H43         2.3930    9.6710    1.8220 ha        1 MOL      0.165608
    100 H44         2.4540    9.2000   -2.4670 ha        1 MOL      0.165608
    101 H45         2.3540   11.4020    0.3910 ho        1 MOL      0.408637
    102 N10         0.8150    3.2020    1.9490 n         1 MOL     -0.597609
    103 C34         0.2080    2.0130    2.6040 c3        1 MOL      0.044052
    104 C35        -0.2870    0.9380    1.6430 c         1 MOL      0.484242
    105 O15         0.4240    0.6300    0.6870 o         1 MOL     -0.374383
    106 C36         1.1880    1.3730    3.5630 c3        1 MOL      0.329114
    107 C37         0.5870    0.3530    4.6380 c3        1 MOL     -0.100903
    108 C38         2.0450    2.3470    4.4480 c3        1 MOL     -0.373686
    109 C39        -0.4580    0.9300    5.6420 c3        1 MOL     -0.233977
    110 H46         0.4430    4.1260    2.1290 hn        1 MOL      0.342514
    111 H47        -0.6340    2.2870    3.2460 h1        1 MOL      0.059246
    112 H48         1.8900    0.8500    2.9110 hc        1 MOL     -0.012186
    113 H49         1.3340   -0.1250    5.2850 hc        1 MOL      0.055758
    114 H50         0.0400   -0.4630    4.1650 hc        1 MOL      0.055758
    115 H51         1.4030    3.1160    4.8950 hc        1 MOL      0.096125
    116 H52         2.5450    1.8520    5.2840 hc        1 MOL      0.096125
    117 H53         2.8200    2.8040    3.8480 hc        1 MOL      0.096125
    118 H54        -0.7440    0.1010    6.2820 hc        1 MOL      0.057469
    119 H55        -0.1630    1.7340    6.3110 hc        1 MOL      0.057469
    120 H56        -1.2950    1.3230    5.0540 hc        1 MOL      0.057469
    121 N11        -1.4800    0.3290    1.8470 n         1 MOL     -0.621196
    122 C40        -1.9920   -0.8080    0.9960 c3        1 MOL      0.100315
    123 C41        -3.4010   -0.6540    0.4670 c         1 MOL      0.732034
    124 O16        -3.7920   -1.3310   -0.4560 o         1 MOL     -0.591004
    125 C42        -1.7420   -2.0970    1.7320 c3        1 MOL      0.409547
    126 O17        -2.2010   -2.1210    3.0710 oh        1 MOL     -0.678797
    127 H57        -2.0550    0.6150    2.6300 hn        1 MOL      0.316698
    128 H58        -1.3930   -0.9410    0.1010 h1        1 MOL     -0.025623
    129 H59        -0.6710   -2.2760    1.7350 h1        1 MOL     -0.070365
    130 H60        -2.2530   -2.8000    1.0610 h1        1 MOL     -0.070365
    131 H61        -1.6790   -2.7740    3.5460 ho        1 MOL      0.411984
    132 N12        -4.2330    0.2210    1.0030 n         1 MOL     -0.669520
    133 C43        -5.5640    0.4790    0.5820 c3        1 MOL      0.105017
    134 C44        -5.5930    1.0440   -0.8660 c         1 MOL      0.655637
    135 O18        -4.8040    1.8790   -1.3210 o         1 MOL     -0.606898
    136 C45        -6.2490    1.4440    1.5480 c3        1 MOL     -0.306226
    137 H62        -3.9380    0.5830    1.8920 hn        1 MOL      0.351329
    138 H63        -6.0040   -0.5170    0.5870 h1        1 MOL      0.141861
    139 H64        -7.3210    1.3640    1.4230 hc        1 MOL      0.096773
    140 H65        -5.9970    1.0710    2.5470 hc        1 MOL      0.096773
    141 H66        -5.8780    2.4590    1.4660 hc        1 MOL      0.096773
    142 N13        -6.5270    0.7330   -1.7100 n         1 MOL     -0.535070
    143 C46        -7.5660   -0.1850   -1.5100 c3        1 MOL      0.300989
    144 C47        -8.8820    0.2460   -2.2060 c         1 MOL      0.269835
    145 O19        -8.8570    0.6580   -3.3920 o         1 MOL     -0.517960
    146 C48        -7.0210   -1.4940   -1.9770 c3        1 MOL     -0.064208
    147 H67        -6.5720    1.2570   -2.5600 hn        1 MOL      0.314076
    148 H68        -7.6900   -0.1870   -0.4340 h1        1 MOL     -0.086302
    149 H69        -7.6820   -2.3300   -1.7380 hc        1 MOL      0.012554
    150 H70        -6.8380   -1.4710   -3.0460 hc        1 MOL      0.012554
    151 H71        -6.1010   -1.5740   -1.4000 hc        1 MOL      0.012554
    152 N14       -10.0600    0.2990   -1.5940 n         1 MOL     -0.020254
    153 C49       -10.3290   -0.0360   -0.2380 c3        1 MOL     -0.381753
    154 C50       -10.1120    1.1350    0.6630 c         1 MOL      0.697232
    155 O20       -10.1530    0.9700    1.8900 o         1 MOL     -0.575362
    156 C51       -11.7680   -0.6200   -0.1880 c3        1 MOL     -0.033489
    157 C52       -12.9880    0.3290   -0.4300 c3        1 MOL     -0.075996
    158 C53       -13.2990    0.3510   -1.9310 c         1 MOL      0.700001
    159 O21       -12.6370    1.1550   -2.6350 o         1 MOL     -0.656542
    160 O22       -14.2390   -0.3370   -2.3900 o         1 MOL     -0.656542
    161 H72       -10.8520    0.5310   -2.1710 hn        1 MOL      0.159195
    162 H73        -9.6380   -0.7690    0.1870 h1        1 MOL      0.129022
    163 H74       -11.9180   -1.0090    0.8220 hc        1 MOL      0.042507
    164 H75       -11.8970   -1.5190   -0.7960 hc        1 MOL      0.042507
    165 H76       -12.6900    1.3210   -0.0900 hc        1 MOL      0.004166
    166 H77       -13.9190    0.0300    0.0610 hc        1 MOL      0.004166
    167 N15        -9.8530    2.3140    0.0960 n         1 MOL     -0.360538
    168 C54        -9.4110    3.5120    0.8820 c3        1 MOL     -0.160936
    169 H78        -9.8740    3.4890    1.8680 h1        1 MOL      0.089915
    170 H79        -8.3260    3.4970    0.9890 h1        1 MOL      0.089915
    171 H80        -9.7130    4.4200    0.3600 h1        1 MOL      0.089915
    172 H81       -10.1070    2.5580   -0.8470 hn        1 MOL      0.272577
    173 Ca1         2.5340    0.2050   -0.9920 Ca        1 MOL      1.739776
    174 O23         0.4800   -1.3660   -2.0660 oh        1 MOL     -0.874483
    175 H82         0.4440   -1.9810   -2.7920 ho        1 MOL      0.426710
    176 H83        -0.4350   -1.1500   -1.8860 ho        1 MOL      0.426710
    177 O24         2.7980    1.0110   -3.6160 oh        1 MOL     -0.874483
    178 H84         2.9690    1.6950   -4.2650 ho        1 MOL      0.426710
    179 H85         2.8480    0.1890   -4.1070 ho        1 MOL      0.426710
    180 O25         0.9410    2.2120   -1.8500 oh        1 MOL     -0.874483
    181 H86         0.0410    2.4100   -1.5980 ho        1 MOL      0.426710
    182 H87         1.1310    2.8420   -2.5460 ho        1 MOL      0.426710
@<TRIPOS>BOND
     1    1    2 1   
     2    1    4 1   
     3    1    5 1   
     4    1    6 1   
     5    2    3 2   
     6    2    7 1   
     7    7    8 1   
     8    7   15 1   
     9    8    9 1   
    10    8   11 1   
    11    8   16 1   
    12    9   10 2   
    13    9   19 1   
    14   11   12 1   
    15   11   17 1   
    16   11   18 1   
    17   12   13 1   
    18   12   14 1   
    19   19   20 1   
    20   19   28 1   
    21   20   21 1   
    22   20   23 1   
    23   20   29 1   
    24   21   22 2   
    25   21   41 1   
    26   23   24 1   
    27   23   30 1   
    28   23   31 1   
    29   24   25 1   
    30   24   32 1   
    31   24   33 1   
    32   25   26 1   
    33   25   34 1   
    34   25   35 1   
    35   26   27 1   
    36   26   36 1   
    37   26   37 1   
    38   27   38 1   
    39   27   39 1   
    40   27   40 1   
    41   41   42 1   
    42   41   49 1   
    43   42   43 1   
    44   42   45 1   
    45   42   50 1   
    46   43   44 2   
    47   43   53 1   
    48   45   46 1   
    49   45   51 1   
    50   45   52 1   
    51   46   47 1   
    52   46   48 1   
    53   53   54 1   
    54   53   57 1   
    55   54   55 1   
    56   54   58 1   
    57   54   59 1   
    58   55   56 2   
    59   55   60 1   
    60   60   61 1   
    61   60   68 1   
    62   61   62 1   
    63   61   64 1   
    64   61   69 1   
    65   62   63 2   
    66   62   74 1   
    67   64   65 1   
    68   64   70 1   
    69   64   71 1   
    70   65   66 1   
    71   65   67 2   
    72   66   72 1   
    73   66   73 1   
    74   74   75 1   
    75   74   78 1   
    76   75   76 1   
    77   75   79 1   
    78   75   80 1   
    79   76   77 2   
    80   76   81 1   
    81   81   82 1   
    82   81   93 1   
    83   82   83 1   
    84   82   85 1   
    85   82   94 1   
    86   83   84 2   
    87   83  102 1   
    88   85   86 1   
    89   85   95 1   
    90   85   96 1   
    91   86   87 ar  
    92   86   88 ar  
    93   87   89 ar  
    94   87   97 1   
    95   88   90 ar  
    96   88   98 1   
    97   89   91 ar  
    98   89   99 1   
    99   90   91 ar  
   100   90  100 1   
   101   91   92 1   
   102   92  101 1   
   103  102  103 1   
   104  102  110 1   
   105  103  104 1   
   106  103  106 1   
   107  103  111 1   
   108  104  105 2   
   109  104  121 1   
   110  106  107 1   
   111  106  108 1   
   112  106  112 1   
   113  107  109 1   
   114  107  113 1   
   115  107  114 1   
   116  108  115 1   
   117  108  116 1   
   118  108  117 1   
   119  109  118 1   
   120  109  119 1   
   121  109  120 1   
   122  121  122 1   
   123  121  127 1   
   124  122  123 1   
   125  122  125 1   
   126  122  128 1   
   127  123  124 2   
   128  123  132 1   
   129  125  126 1   
   130  125  129 1   
   131  125  130 1   
   132  126  131 1   
   133  132  133 1   
   134  132  137 1   
   135  133  134 1   
   136  133  136 1   
   137  133  138 1   
   138  134  135 2   
   139  134  142 1   
   140  136  139 1   
   141  136  140 1   
   142  136  141 1   
   143  142  143 1   
   144  142  147 1   
   145  143  144 1   
   146  143  146 1   
   147  143  148 1   
   148  144  145 2   
   149  144  152 1   
   150  146  149 1   
   151  146  150 1   
   152  146  151 1   
   153  152  153 1   
   154  152  161 1   
   155  153  154 1   
   156  153  156 1   
   157  153  162 1   
   158  154  155 2   
   159  154  167 1   
   160  156  157 1   
   161  156  163 1   
   162  156  164 1   
   163  157  158 1   
   164  157  165 1   
   165  157  166 1   
   166  158  159 1   
   167  158  160 1   
   168  167  168 1   
   169  167  172 1   
   170  168  169 1   
   171  168  170 1   
   172  168  171 1   
   173  174  175 1   
   174  174  176 1   
   175  177  178 1   
   176  177  179 1   
   177  180  181 1   
   178  180  182 1   
@<TRIPOS>SUBSTRUCTURE
     1 MOL         1 TEMP              0 ****  ****    0 ROOT
