@<TRIPOS>MOLECULE
MOL
  195   189     1     0     0
SMALL
resp


@<TRIPOS>ATOM
      1 C1         -4.1290   -2.5720    2.5370 c3        1 MOL     -0.097238
      2 C2         -3.0760   -2.8570    1.4300 c         1 MOL      0.594896
      3 O1         -2.4880   -1.9090    0.8970 o         1 MOL     -0.526055
      4 H1         -4.8900   -3.3520    2.5220 hc        1 MOL      0.011974
      5 H2         -3.6400   -2.5610    3.5100 hc        1 MOL      0.011974
      6 H3         -4.5980   -1.6050    2.3540 hc        1 MOL      0.011974
      7 N1         -2.7150   -4.1280    1.1790 n         1 MOL     -0.544839
      8 C3         -1.8500   -4.6240    0.1070 c3        1 MOL      0.174030
      9 C4         -0.3600   -4.2080    0.1940 c         1 MOL      0.415420
     10 O2          0.3410   -3.9980   -0.8390 o         1 MOL     -0.524581
     11 C5         -2.4700   -4.4530   -1.2940 c3        1 MOL     -0.331365
     12 C6         -3.9330   -4.9080   -1.3960 c         1 MOL      0.837149
     13 O3         -4.8380   -4.1350   -1.3120 o         1 MOL     -0.802414
     14 O4         -4.1850   -6.1050   -1.4650 o         1 MOL     -0.802414
     15 H4         -3.1800   -4.8160    1.7400 hn        1 MOL      0.312237
     16 H5         -1.8290   -5.6940    0.2830 h1        1 MOL      0.056616
     17 H6         -1.9350   -5.0160   -2.0680 hc        1 MOL      0.114432
     18 H7         -2.5040   -3.4050   -1.5990 hc        1 MOL      0.114432
     19 N2          0.1300   -3.9480    1.4090 n         1 MOL     -0.339074
     20 C7          1.4720   -3.3630    1.8220 c3        1 MOL      0.043821
     21 C8          2.3240   -4.4620    2.3740 c         1 MOL      0.595572
     22 O5          1.7900   -5.3790    2.9940 o         1 MOL     -0.586901
     23 C9          1.1780   -2.2060    2.7950 c3        1 MOL      0.127879
     24 C10         0.0950   -2.4710    3.8530 c3        1 MOL      0.033860
     25 C11         0.7970   -0.9950    1.9290 c3        1 MOL     -0.119303
     26 C12        -0.1630   -1.3730    4.8910 c3        1 MOL     -0.142554
     27 H8         -0.4860   -4.1590    2.1770 hn        1 MOL      0.156172
     28 H9          1.9430   -3.0140    0.9030 h1        1 MOL      0.071308
     29 H10         2.0860   -2.0030    3.3620 hc        1 MOL      0.005378
     30 H11         0.2710   -3.4450    4.3240 hc        1 MOL      0.007378
     31 H12        -0.8490   -2.5870    3.3240 hc        1 MOL      0.007378
     32 H13        -0.2640   -1.0300    1.6480 hc        1 MOL      0.068413
     33 H14         1.0820   -0.1660    2.5700 hc        1 MOL      0.068413
     34 H15         1.5160   -0.7750    1.1380 hc        1 MOL      0.068413
     35 H16        -0.9920   -1.7060    5.5180 hc        1 MOL      0.026969
     36 H17         0.7080   -1.2080    5.5280 hc        1 MOL      0.026969
     37 H18        -0.3340   -0.4880    4.2950 hc        1 MOL      0.026969
     38 N3          3.6900   -4.3490    2.3220 n         1 MOL     -0.635273
     39 C13         4.3970   -3.0880    2.0620 c3        1 MOL      0.268659
     40 C14         5.1370   -3.2630    0.7800 c         1 MOL      0.424993
     41 O6          5.2670   -2.2520    0.0460 o         1 MOL     -0.513037
     42 C15         5.3670   -2.7020    3.1960 c3        1 MOL     -0.212039
     43 C16         6.2890   -3.8270    3.7560 c         1 MOL      0.726201
     44 O7          6.3380   -4.9320    3.1880 o         1 MOL     -0.718632
     45 O8          6.9990   -3.5800    4.7380 o         1 MOL     -0.718632
     46 H19         4.2540   -5.1340    2.6330 hn        1 MOL      0.307152
     47 H20         3.7650   -2.2130    1.9610 h1        1 MOL     -0.075540
     48 H21         4.8000   -2.3890    4.0780 hc        1 MOL      0.048610
     49 H22         5.9420   -1.8340    2.8870 hc        1 MOL      0.048610
     50 N4          5.5840   -4.4450    0.4300 n         1 MOL     -0.225903
     51 C17         6.1680   -4.8110   -0.8570 c3        1 MOL     -0.205735
     52 C18         7.4600   -4.0890   -1.1520 c         1 MOL      0.645835
     53 O9          8.4950   -4.5240   -0.6940 o         1 MOL     -0.584296
     54 H23         5.4460   -5.2330    1.0410 hn        1 MOL      0.275086
     55 H24         5.4640   -4.5440   -1.6460 h1        1 MOL      0.078798
     56 H25         6.3380   -5.8880   -0.9000 h1        1 MOL      0.078798
     57 N5          7.3060   -2.9690   -1.8590 n         1 MOL     -0.565419
     58 C19         8.4570   -2.0970   -2.1910 c3        1 MOL      0.076113
     59 C20         8.7280   -0.9900   -1.1320 c         1 MOL      0.418774
     60 O10         9.5080   -0.0910   -1.3680 o         1 MOL     -0.558087
     61 C21         8.1870   -1.4270   -3.5850 c3        1 MOL     -0.148678
     62 C22         6.7990   -0.7510   -3.6060 c         1 MOL      0.645229
     63 O11         6.6870    0.3930   -3.0470 o         1 MOL     -0.686727
     64 O12         5.8630   -1.4230   -4.1280 o         1 MOL     -0.686727
     65 H26         6.3590   -2.7410   -2.1210 hn        1 MOL      0.368031
     66 H27         9.3980   -2.6110   -2.3710 h1        1 MOL      0.077664
     67 H28         8.2220   -2.2170   -4.3360 hc        1 MOL      0.016088
     68 H29         8.9630   -0.7260   -3.8870 hc        1 MOL      0.016088
     69 N6          8.0020   -1.0190   -0.0310 n         1 MOL     -0.239461
     70 C23         8.2710   -0.0710    1.1010 c3        1 MOL     -0.193054
     71 C24         7.9070    1.4270    0.8670 c         1 MOL      0.356178
     72 O13         7.8680    2.2060    1.8530 o         1 MOL     -0.508818
     73 H30         7.2030   -1.6180    0.0770 hn        1 MOL      0.254735
     74 H31         9.3350   -0.0980    1.3360 h1        1 MOL      0.127485
     75 H32         7.8070   -0.4320    2.0170 h1        1 MOL      0.127485
     76 N7          7.4980    1.8580   -0.3810 n         1 MOL     -0.043870
     77 C25         6.8750    3.1360   -0.6260 c3        1 MOL     -0.207602
     78 C26         5.8700    3.6860    0.4290 c         1 MOL      0.477338
     79 O14         5.9100    4.8600    0.8050 o         1 MOL     -0.524068
     80 C27         7.8960    4.2750   -0.8860 c3        1 MOL      0.357630
     81 C28         8.7190    4.0330   -2.1710 c3        1 MOL     -0.357089
     82 C29         9.6880    5.1440   -2.2850 c         1 MOL      0.594040
     83 N8         10.7770    5.0470   -1.4150 n         1 MOL     -0.762989
     84 O15         9.5730    6.1880   -2.9160 o         1 MOL     -0.548787
     85 H33         7.5130    1.1390   -1.0870 hn        1 MOL      0.183080
     86 H34         6.4020    2.9760   -1.5890 h1        1 MOL      0.120280
     87 H35         8.5320    4.4360   -0.0190 hc        1 MOL     -0.040004
     88 H36         7.4010    5.2370   -1.0120 hc        1 MOL     -0.040004
     89 H37         8.1020    3.9310   -3.0660 hc        1 MOL      0.098925
     90 H38         9.2880    3.1120   -1.9870 hc        1 MOL      0.098925
     91 H39        10.9090    4.1470   -0.9830 hn        1 MOL      0.334529
     92 H40        11.5120    5.7370   -1.4290 hn        1 MOL      0.334529
     93 N9          4.8960    2.8660    0.8200 n         1 MOL     -0.314581
     94 C30         3.7640    3.0240    1.7890 c3        1 MOL     -0.068180
     95 C31         2.3650    2.5470    1.2220 c         1 MOL      0.529580
     96 O16         1.3590    2.7050    1.9130 o         1 MOL     -0.549652
     97 C32         4.1090    2.2140    3.1440 c3        1 MOL      0.241971
     98 C33         4.4760    0.8070    2.9220 c3        1 MOL     -0.252179
     99 C34         5.1780    2.8100    4.0400 c3        1 MOL     -0.252179
    100 H41         4.9810    1.9190    0.4760 hn        1 MOL      0.196164
    101 H42         3.7980    4.0550    2.1500 h1        1 MOL      0.113413
    102 H43         3.1710    2.1920    3.6940 hc        1 MOL     -0.033787
    103 H44         4.2980    0.3530    3.8960 hc        1 MOL      0.060570
    104 H45         3.8710    0.3150    2.1650 hc        1 MOL      0.060570
    105 H46         5.5430    0.6440    2.7430 hc        1 MOL      0.060570
    106 H47         5.1790    2.2840    4.9880 hc        1 MOL      0.060570
    107 H48         6.1860    2.7840    3.6000 hc        1 MOL      0.060570
    108 H49         4.9180    3.8590    4.2040 hc        1 MOL      0.060570
    109 N10         2.2950    2.0590   -0.0280 n         1 MOL     -0.575802
    110 C35         0.9670    1.8240   -0.6730 c3        1 MOL      0.281088
    111 C36         0.2060    3.1230   -1.0860 c         1 MOL      0.733201
    112 O17         0.8510    4.1370   -1.3380 o         1 MOL     -0.568687
    113 C37         1.1530    0.9500   -1.9040 c3        1 MOL     -0.592041
    114 C38         1.2260   -0.5340   -1.6030 c         1 MOL      0.874155
    115 N11         0.1420   -1.2370   -1.6020 n         1 MOL     -0.863915
    116 O18         2.2910   -1.0820   -1.4350 o         1 MOL     -0.559115
    117 H50         3.1730    1.7020   -0.3760 hn        1 MOL      0.328307
    118 H51         0.3160    1.3040    0.0330 h1        1 MOL     -0.054970
    119 H52         2.0020    1.2740   -2.5130 hc        1 MOL      0.163924
    120 H53         0.3190    1.1460   -2.5680 hc        1 MOL      0.163924
    121 H54        -0.7450   -0.7640   -1.4700 hn        1 MOL      0.372344
    122 H55         0.2730   -2.2060   -1.3590 hn        1 MOL      0.372344
    123 N12        -1.0850    3.0140   -1.2320 n         1 MOL     -0.683640
    124 C39        -2.0270    4.2270   -1.3130 c3        1 MOL      0.136520
    125 C40        -3.2970    3.9970   -0.5180 c         1 MOL      0.716264
    126 O19        -3.6420    2.8660   -0.2140 o         1 MOL     -0.549370
    127 C41        -2.2220    4.6120   -2.7700 c3        1 MOL     -0.073403
    128 C42        -2.8660    3.4470   -3.4990 ca        1 MOL      0.000564
    129 C43        -4.2330    3.2940   -3.4550 ca        1 MOL     -0.137503
    130 C44        -2.0620    2.4820   -4.1870 ca        1 MOL     -0.137503
    131 C45        -4.7980    2.1930   -4.1090 ca        1 MOL     -0.289460
    132 C46        -2.6620    1.3700   -4.8060 ca        1 MOL     -0.289460
    133 C47        -4.0420    1.1950   -4.8130 ca        1 MOL      0.395449
    134 O20        -4.6770    0.1620   -5.3900 oh        1 MOL     -0.548381
    135 H56        -1.4820    2.0950   -1.1270 hn        1 MOL      0.354052
    136 H57        -1.5240    5.1190   -0.9560 h1        1 MOL      0.064529
    137 H58        -1.2860    4.8530   -3.2930 hc        1 MOL      0.047786
    138 H59        -2.8350    5.5090   -2.8040 hc        1 MOL      0.047786
    139 H60        -4.8110    4.0090   -2.8860 ha        1 MOL      0.143363
    140 H61        -0.9910    2.6240   -4.2590 ha        1 MOL      0.143363
    141 H62        -5.8690    2.0880   -4.0530 ha        1 MOL      0.135054
    142 H63        -2.1550    0.5650   -5.3040 ha        1 MOL      0.135054
    143 H64        -5.5930   -0.0330   -5.1480 ho        1 MOL      0.398712
    144 N13        -4.0480    5.1020   -0.2620 n         1 MOL     -0.841628
    145 C48        -5.3150    5.0680    0.4440 c3        1 MOL      0.524139
    146 C49        -6.5340    4.9090   -0.5250 c         1 MOL      0.510716
    147 O21        -6.7850    5.7910   -1.3690 o         1 MOL     -0.588223
    148 C50        -5.3540    6.3920    1.2280 c3        1 MOL      0.226557
    149 C51        -6.3870    6.3680    2.3110 c3        1 MOL     -0.251335
    150 C52        -6.3120    7.5510    3.2910 c         1 MOL      0.743179
    151 O22        -5.2340    7.9620    3.7090 o         1 MOL     -0.699691
    152 O23        -7.3060    8.2100    3.5890 o         1 MOL     -0.699691
    153 H65        -3.8480    6.0120   -0.6410 hn        1 MOL      0.335369
    154 H66        -5.2860    4.2550    1.1680 h1        1 MOL     -0.108531
    155 H67        -5.4730    7.1960    0.4990 hc        1 MOL     -0.061414
    156 H68        -4.4290    6.6220    1.7550 hc        1 MOL     -0.061414
    157 H69        -6.3140    5.3810    2.7570 hc        1 MOL     -0.000642
    158 H70        -7.3710    6.4160    1.8480 hc        1 MOL     -0.000642
    159 N14        -7.3220    3.8110   -0.3970 n         1 MOL     -0.507239
    160 C53        -7.1860    2.6110    0.4380 c3        1 MOL     -0.094293
    161 C54        -7.8480    2.8740    1.7970 c         1 MOL      0.535358
    162 O24        -8.8070    3.5560    1.9650 o         1 MOL     -0.537290
    163 C55        -7.7610    1.3380   -0.2190 c3        1 MOL      0.303373
    164 C56        -7.5570    0.1010    0.6670 c3        1 MOL     -0.043855
    165 C57        -7.7240   -1.1800   -0.0320 c         1 MOL      0.622962
    166 O25        -7.0540   -1.4630   -1.0380 o         1 MOL     -0.747706
    167 O26        -8.4660   -2.0530    0.3860 o         1 MOL     -0.747706
    168 H71        -8.1970    3.9690   -0.8760 hn        1 MOL      0.289355
    169 H72        -6.1380    2.3080    0.5060 h1        1 MOL      0.113320
    170 H73        -7.2940    1.2110   -1.1910 hc        1 MOL     -0.068669
    171 H74        -8.8300    1.3260   -0.4010 hc        1 MOL     -0.068669
    172 H75        -8.2700    0.1290    1.4900 hc        1 MOL     -0.018785
    173 H76        -6.5690    0.0980    1.1250 hc        1 MOL     -0.018785
    174 N15        -7.2660    2.2870    2.8080 n         1 MOL     -0.192906
    175 C58        -7.6590    2.2970    4.2230 c3        1 MOL     -0.137081
    176 H77        -7.3200    3.2230    4.6870 h1        1 MOL      0.069710
    177 H78        -8.7430    2.2280    4.3000 h1        1 MOL      0.069710
    178 H79        -7.2030    1.4480    4.7330 h1        1 MOL      0.069710
    179 H80        -6.4650    1.6990    2.6180 hn        1 MOL      0.205839
    180 Ca1        -7.4610   -4.2330   -0.9080 Ca        1 MOL      1.768610
    181 O27        -7.4830   -4.0810   -3.4240 oh        1 MOL     -0.814698
    182 O28        -8.9390   -5.3030    1.1380 oh        1 MOL     -0.814698
    183 H81        -7.6140   -4.6720   -4.1600 ho        1 MOL      0.396455
    184 H82        -8.6130   -5.8820    1.8270 ho        1 MOL      0.396455
    185 H83        -7.5460   -3.2030   -3.7990 ho        1 MOL      0.396455
    186 H84        -9.7620   -4.9680    1.4690 ho        1 MOL      0.396455
    187 O29       -10.0890   -3.7920   -1.4480 oh        1 MOL     -0.814698
    188 H85       -10.9140   -3.8970   -0.9760 ho        1 MOL      0.396455
    189 H86       -10.2180   -3.0180   -1.9880 ho        1 MOL      0.396455
    190 O30        -8.7180   -6.6380   -2.6740 oh        1 MOL     -0.814698
    191 H87        -8.7770   -6.5470   -3.6280 ho        1 MOL      0.396455
    192 H88        -8.4090   -7.5430   -2.5460 ho        1 MOL      0.396455
    193 O31        -6.6210   -6.7800   -0.0650 oh        1 MOL     -0.814698
    194 H89        -7.0370   -7.4850    0.4330 ho        1 MOL      0.396455
    195 H90        -5.7510   -7.1320   -0.2660 ho        1 MOL      0.396455
@<TRIPOS>BOND
     1    1    2 1   
     2    1    4 1   
     3    1    5 1   
     4    1    6 1   
     5    2    3 2   
     6    2    7 1   
     7    7    8 1   
     8    7   15 1   
     9    8    9 1   
    10    8   11 1   
    11    8   16 1   
    12    9   10 2   
    13    9   19 1   
    14   11   12 1   
    15   11   17 1   
    16   11   18 1   
    17   12   13 1   
    18   12   14 1   
    19   19   20 1   
    20   19   27 1   
    21   20   21 1   
    22   20   23 1   
    23   20   28 1   
    24   21   22 2   
    25   21   38 1   
    26   23   24 1   
    27   23   25 1   
    28   23   29 1   
    29   24   26 1   
    30   24   30 1   
    31   24   31 1   
    32   25   32 1   
    33   25   33 1   
    34   25   34 1   
    35   26   35 1   
    36   26   36 1   
    37   26   37 1   
    38   38   39 1   
    39   38   46 1   
    40   39   40 1   
    41   39   42 1   
    42   39   47 1   
    43   40   41 2   
    44   40   50 1   
    45   42   43 1   
    46   42   48 1   
    47   42   49 1   
    48   43   44 1   
    49   43   45 1   
    50   50   51 1   
    51   50   54 1   
    52   51   52 1   
    53   51   55 1   
    54   51   56 1   
    55   52   53 2   
    56   52   57 1   
    57   57   58 1   
    58   57   65 1   
    59   58   59 1   
    60   58   61 1   
    61   58   66 1   
    62   59   60 2   
    63   59   69 1   
    64   61   62 1   
    65   61   67 1   
    66   61   68 1   
    67   62   63 1   
    68   62   64 1   
    69   69   70 1   
    70   69   73 1   
    71   70   71 1   
    72   70   74 1   
    73   70   75 1   
    74   71   72 2   
    75   71   76 1   
    76   76   77 1   
    77   76   85 1   
    78   77   78 1   
    79   77   80 1   
    80   77   86 1   
    81   78   79 2   
    82   78   93 1   
    83   80   81 1   
    84   80   87 1   
    85   80   88 1   
    86   81   82 1   
    87   81   89 1   
    88   81   90 1   
    89   82   83 1   
    90   82   84 2   
    91   83   91 1   
    92   83   92 1   
    93   93   94 1   
    94   93  100 1   
    95   94   95 1   
    96   94   97 1   
    97   94  101 1   
    98   95   96 2   
    99   95  109 1   
   100   97   98 1   
   101   97   99 1   
   102   97  102 1   
   103   98  103 1   
   104   98  104 1   
   105   98  105 1   
   106   99  106 1   
   107   99  107 1   
   108   99  108 1   
   109  109  110 1   
   110  109  117 1   
   111  110  111 1   
   112  110  113 1   
   113  110  118 1   
   114  111  112 2   
   115  111  123 1   
   116  113  114 1   
   117  113  119 1   
   118  113  120 1   
   119  114  115 1   
   120  114  116 2   
   121  115  121 1   
   122  115  122 1   
   123  123  124 1   
   124  123  135 1   
   125  124  125 1   
   126  124  127 1   
   127  124  136 1   
   128  125  126 2   
   129  125  144 1   
   130  127  128 1   
   131  127  137 1   
   132  127  138 1   
   133  128  129 ar  
   134  128  130 ar  
   135  129  131 ar  
   136  129  139 1   
   137  130  132 ar  
   138  130  140 1   
   139  131  133 ar  
   140  131  141 1   
   141  132  133 ar  
   142  132  142 1   
   143  133  134 1   
   144  134  143 1   
   145  144  145 1   
   146  144  153 1   
   147  145  146 1   
   148  145  148 1   
   149  145  154 1   
   150  146  147 2   
   151  146  159 1   
   152  148  149 1   
   153  148  155 1   
   154  148  156 1   
   155  149  150 1   
   156  149  157 1   
   157  149  158 1   
   158  150  151 1   
   159  150  152 1   
   160  159  160 1   
   161  159  168 1   
   162  160  161 1   
   163  160  163 1   
   164  160  169 1   
   165  161  162 2   
   166  161  174 1   
   167  163  164 1   
   168  163  170 1   
   169  163  171 1   
   170  164  165 1   
   171  164  172 1   
   172  164  173 1   
   173  165  166 1   
   174  165  167 1   
   175  174  175 1   
   176  174  179 1   
   177  175  176 1   
   178  175  177 1   
   179  175  178 1   
   180  181  183 1   
   181  181  185 1   
   182  182  184 1   
   183  182  186 1   
   184  187  188 1   
   185  187  189 1   
   186  190  191 1   
   187  190  192 1   
   188  193  194 1   
   189  193  195 1   
@<TRIPOS>SUBSTRUCTURE
     1 MOL         1 TEMP              0 ****  ****    0 ROOT
