@<TRIPOS>MOLECULE
MOL
  192   187     1     0     0
SMALL
resp


@<TRIPOS>ATOM
      1 C1          9.3640    1.5940    1.2990 c3        1 MOL     -0.545918
      2 C2          8.2370    0.9140    0.5420 c         1 MOL      0.858440
      3 O1          7.2080    0.6830    1.1170 o         1 MOL     -0.695847
      4 H1          8.9870    2.4990    1.7770 hc        1 MOL      0.129933
      5 H2          9.7510    0.9170    2.0610 hc        1 MOL      0.129933
      6 H3         10.1630    1.8560    0.6060 hc        1 MOL      0.129933
      7 N1          8.5050    0.5560   -0.6990 n         1 MOL     -0.720767
      8 C3          7.4020    0.1780   -1.6370 c3        1 MOL      0.163462
      9 C4          6.9240   -1.3110   -1.4510 c         1 MOL      0.419891
     10 O2          6.7840   -2.0940   -2.4140 o         1 MOL     -0.446478
     11 C5          7.8400    0.4930   -3.1330 c3        1 MOL     -0.237784
     12 C6          9.1890   -0.1250   -3.6510 c         1 MOL      0.659667
     13 O3          9.8420   -0.7590   -2.7810 o         1 MOL     -0.634085
     14 O4          9.5660    0.0230   -4.8740 o         1 MOL     -0.634085
     15 H4          9.4220    0.7880   -1.0750 hn        1 MOL      0.359450
     16 H5          6.5180    0.7670   -1.4030 h1        1 MOL      0.057540
     17 H6          7.9570    1.5770   -3.2120 hc        1 MOL      0.076011
     18 H7          6.9840    0.2040   -3.7440 hc        1 MOL      0.076011
     19 N2          6.6130   -1.7590   -0.2700 n         1 MOL     -0.410819
     20 C7          6.2250   -3.1320    0.0730 c3        1 MOL      0.278408
     21 C8          4.7530   -3.4990   -0.2210 c         1 MOL      0.390199
     22 O5          4.5740   -4.3680   -1.0660 o         1 MOL     -0.495975
     23 C9          6.7430   -3.5090    1.5210 c3        1 MOL     -0.285945
     24 C10         8.1870   -3.2800    1.8050 c3        1 MOL      0.390312
     25 C11         8.6500   -3.8870    3.1260 c3        1 MOL     -0.068484
     26 C12         9.9350   -3.2470    3.6410 c3        1 MOL      0.106529
     27 N3         10.1740   -4.0090    4.8480 n4        1 MOL     -0.274597
     28 H8          6.6040   -1.0120    0.4150 hn        1 MOL      0.289872
     29 H9          6.7860   -3.7680   -0.6170 h1        1 MOL      0.051792
     30 H10         6.5890   -4.5720    1.6180 hc        1 MOL      0.020692
     31 H11         6.2380   -3.0240    2.3490 hc        1 MOL      0.020692
     32 H12         8.4400   -2.2190    1.8410 hc        1 MOL     -0.061914
     33 H13         8.7780   -3.7100    1.0000 hc        1 MOL     -0.061914
     34 H14         8.7390   -4.9650    3.0000 hc        1 MOL      0.017514
     35 H15         7.9200   -3.4960    3.8340 hc        1 MOL      0.017514
     36 H16         9.7970   -2.2090    3.9360 hx        1 MOL      0.052351
     37 H17        10.6500   -3.2990    2.8150 hx        1 MOL      0.052351
     38 H18         9.3840   -4.1220    5.4740 hn        1 MOL      0.276750
     39 H19        10.4790   -4.9370    4.6110 hn        1 MOL      0.276750
     40 H20        10.8970   -3.6230    5.4250 hn        1 MOL      0.276750
     41 N4          3.7450   -2.7690    0.2290 n         1 MOL     -0.363164
     42 C13         3.8120   -1.4780    0.9820 c3        1 MOL      0.126904
     43 C14         3.8890   -0.1720    0.1550 c         1 MOL      0.213632
     44 O6          3.8370   -0.4190   -1.0730 o         1 MOL     -0.394034
     45 C15         2.6270   -1.3790    1.9540 c3        1 MOL     -0.309120
     46 C16         1.3300   -1.7580    1.3030 c         1 MOL      0.828463
     47 O7          0.9580   -1.2140    0.2750 o         1 MOL     -0.715026
     48 O8          0.6400   -2.6320    1.8470 o         1 MOL     -0.715026
     49 H21         2.8010   -3.0970    0.1080 hn        1 MOL      0.321234
     50 H22         4.7300   -1.5610    1.5690 h1        1 MOL      0.066792
     51 H23         2.5310   -0.3920    2.4020 hc        1 MOL      0.037397
     52 H24         2.8600   -2.1010    2.7320 hc        1 MOL      0.037397
     53 N5          3.9830    1.0640    0.6630 n         1 MOL     -0.273790
     54 C17         3.8720    2.2390   -0.1950 c3        1 MOL     -0.018377
     55 C18         2.4970    2.6840   -0.6900 c         1 MOL      0.489500
     56 O9          1.4780    2.0690   -0.5210 o         1 MOL     -0.511150
     57 H25         4.1490    1.2030    1.6480 hn        1 MOL      0.288701
     58 H26         4.5880    2.1870   -1.0210 h1        1 MOL      0.070225
     59 H27         4.1910    3.0890    0.4160 h1        1 MOL      0.070225
     60 N6          2.6610    3.8760   -1.3570 n         1 MOL     -0.441549
     61 C19         1.5410    4.6360   -2.0540 c3        1 MOL      0.111780
     62 C20         1.8660    6.1410   -2.0870 c         1 MOL      0.573772
     63 O10         2.9730    6.5520   -1.8110 o         1 MOL     -0.524122
     64 C21         1.4250    4.0440   -3.4780 c3        1 MOL     -0.586576
     65 C22         1.2320    2.5260   -3.6200 c         1 MOL      0.812001
     66 O11         0.0990    2.0420   -3.2610 o         1 MOL     -0.692749
     67 O12         2.1150    1.7580   -4.0320 o         1 MOL     -0.692749
     68 H28         3.5680    4.2860   -1.2470 hn        1 MOL      0.286796
     69 H29         0.6210    4.4230   -1.5010 h1        1 MOL      0.123923
     70 H30         2.3360    4.2870   -4.0250 hc        1 MOL      0.159696
     71 H31         0.7790    4.5660   -4.1760 hc        1 MOL      0.159696
     72 N7          0.8460    7.0330   -2.2610 n         1 MOL     -0.504740
     73 C23        -0.5810    6.8470   -2.2980 c3        1 MOL      0.065771
     74 C24        -1.1550    6.3000   -0.9930 c         1 MOL      0.569248
     75 O13        -0.6460    6.7030    0.0560 o         1 MOL     -0.508289
     76 H32         1.0710    8.0120   -2.1870 hn        1 MOL      0.320982
     77 H33        -0.8500    6.1910   -3.1310 h1        1 MOL      0.037256
     78 H34        -1.0790    7.7940   -2.5220 h1        1 MOL      0.037256
     79 N8         -2.1310    5.2970   -1.0470 n         1 MOL     -0.664188
     80 C25        -2.6780    4.7250    0.1680 c3        1 MOL      0.034179
     81 C26        -1.8310    3.5410    0.6070 c         1 MOL      0.770463
     82 O14        -1.3460    2.7380   -0.2600 o         1 MOL     -0.701470
     83 C27        -4.1670    4.2920   -0.0370 c3        1 MOL      0.638796
     84 C28        -5.1150    5.4240   -0.3830 c3        1 MOL     -0.300389
     85 O15        -4.7050    3.5800    1.0220 oh        1 MOL     -0.722347
     86 H35        -2.5760    5.0710   -1.9230 hn        1 MOL      0.322899
     87 H36        -2.7330    5.4870    0.9500 h1        1 MOL      0.056494
     88 H37        -4.1960    3.5860   -0.8660 h1        1 MOL     -0.071089
     89 H38        -5.1680    2.8170    0.6850 ho        1 MOL      0.368040
     90 H39        -5.1510    6.1640    0.4210 hc        1 MOL      0.058007
     91 H40        -4.8500    5.8990   -1.3360 hc        1 MOL      0.058007
     92 H41        -6.0660    4.9200   -0.5700 hc        1 MOL      0.058007
     93 N9         -1.4840    3.6100    1.9250 n         1 MOL     -0.613385
     94 C29        -0.9340    2.6260    2.8420 c3        1 MOL      0.018655
     95 C30        -1.5770    1.2310    2.6050 c         1 MOL      0.599709
     96 O16        -1.3250    0.5890    1.5660 o         1 MOL     -0.540200
     97 C31         0.5660    2.5650    2.7730 c3        1 MOL      0.339451
     98 C32         1.3190    3.9420    2.9080 c3        1 MOL      0.153797
     99 C33         1.1800    1.6520    3.7890 c3        1 MOL     -0.353053
    100 C34         1.1580    4.4730    4.3470 c3        1 MOL     -0.288433
    101 H42        -1.7680    4.4740    2.3650 hn        1 MOL      0.295373
    102 H43        -1.1850    3.0000    3.8370 h1        1 MOL      0.054942
    103 H44         0.8600    2.1150    1.8300 hc        1 MOL     -0.072798
    104 H45         1.0270    4.6370    2.1200 hc        1 MOL     -0.023508
    105 H46         2.3790    3.8900    2.6450 hc        1 MOL     -0.023508
    106 H47         0.8860    0.6240    3.5780 hc        1 MOL      0.075229
    107 H48         2.2520    1.7230    3.6280 hc        1 MOL      0.075229
    108 H49         0.7930    1.7990    4.8010 hc        1 MOL      0.075229
    109 H50         1.6180    5.4520    4.3100 hc        1 MOL      0.059807
    110 H51         0.1230    4.6430    4.6420 hc        1 MOL      0.059807
    111 H52         1.6430    3.9200    5.1520 hc        1 MOL      0.059807
    112 N10        -2.2750    0.7080    3.6160 n         1 MOL     -0.581998
    113 C35        -2.5290   -0.8100    3.6630 c3        1 MOL     -0.179972
    114 C36        -3.8870   -1.2860    2.9960 c         1 MOL      0.630378
    115 O17        -4.1960   -2.4590    2.8550 o         1 MOL     -0.596861
    116 C37        -2.5630   -1.3540    5.0670 c3        1 MOL      0.477112
    117 C38        -3.7750   -0.9000    5.8630 c3        1 MOL     -0.358629
    118 O18        -1.4220   -0.8520    5.7830 oh        1 MOL     -0.597793
    119 H53        -2.6030    1.2600    4.3970 hn        1 MOL      0.333714
    120 H54        -1.7030   -1.3300    3.1870 h1        1 MOL      0.140111
    121 H55        -2.5640   -2.4430    5.0110 h1        1 MOL     -0.001858
    122 H56        -0.6710   -1.3820    5.4900 ho        1 MOL      0.368751
    123 H57        -4.7020   -1.2900    5.4470 hc        1 MOL      0.094852
    124 H58        -3.6610   -1.3610    6.8430 hc        1 MOL      0.094852
    125 H59        -3.7700    0.1830    5.8520 hc        1 MOL      0.094852
    126 N11        -4.7510   -0.3690    2.6510 n         1 MOL     -0.219367
    127 C39        -6.1630   -0.6900    2.2380 c3        1 MOL     -0.313852
    128 C40        -6.0720   -1.0740    0.7330 c         1 MOL      0.738101
    129 O19        -5.3280   -0.5250   -0.0890 o         1 MOL     -0.531982
    130 C41        -7.2030    0.4140    2.6560 c3        1 MOL      0.230557
    131 C42        -7.2700    0.4690    4.1240 c3        1 MOL     -0.566544
    132 O20        -6.6310    1.6410    2.2890 oh        1 MOL     -0.574968
    133 H60        -4.3620    0.5500    2.4980 hn        1 MOL      0.252529
    134 H61        -6.4940   -1.6030    2.7370 h1        1 MOL      0.174755
    135 H62        -8.1120    0.3970    2.0680 h1        1 MOL      0.053402
    136 H63        -7.3730    2.2310    2.4200 ho        1 MOL      0.413838
    137 H64        -6.5250    1.0780    4.6450 hc        1 MOL      0.163452
    138 H65        -8.1770    1.0520    4.3020 hc        1 MOL      0.163452
    139 H66        -7.2840   -0.5400    4.5260 hc        1 MOL      0.163452
    140 N12        -6.7880   -2.2320    0.4480 n         1 MOL     -0.622075
    141 C43        -6.9470   -3.0020   -0.8430 c3        1 MOL      0.123748
    142 C44        -5.6230   -3.1200   -1.6140 c         1 MOL      0.611258
    143 O21        -5.5100   -2.6980   -2.7470 o         1 MOL     -0.537322
    144 C45        -8.1580   -2.3500   -1.6730 c3        1 MOL     -0.058753
    145 C46        -9.4720   -2.2610   -0.9300 c3        1 MOL      0.175373
    146 C47       -10.5960   -1.6540   -1.7350 c3        1 MOL      0.035615
    147 C48       -10.3080   -0.2710   -2.3190 c3        1 MOL     -0.022980
    148 N13       -11.5030    0.4520   -2.7260 n4        1 MOL     -0.124081
    149 H67        -7.5420   -2.4370    1.0850 hn        1 MOL      0.279526
    150 H68        -7.2170   -4.0220   -0.5850 h1        1 MOL      0.061336
    151 H69        -8.1780   -3.0140   -2.5350 hc        1 MOL      0.014251
    152 H70        -7.9080   -1.3180   -1.9540 hc        1 MOL      0.014251
    153 H71        -9.3840   -1.6000   -0.0640 hc        1 MOL     -0.046350
    154 H72        -9.7310   -3.2750   -0.6220 hc        1 MOL     -0.046350
    155 H73       -11.4310   -1.6590   -1.0380 hc        1 MOL      0.010034
    156 H74       -10.8480   -2.3640   -2.5260 hc        1 MOL      0.010034
    157 H75        -9.7680   -0.5720   -3.2220 hx        1 MOL      0.072478
    158 H76        -9.7950    0.3200   -1.5500 hx        1 MOL      0.072478
    159 H77       -11.8910    0.1750   -3.6190 hn        1 MOL      0.174001
    160 H78       -12.2730    0.4070   -2.0800 hn        1 MOL      0.174001
    161 H79       -11.3060    1.4210   -2.9240 hn        1 MOL      0.174001
    162 N14        -4.6520   -3.6560   -0.8910 n         1 MOL     -0.683469
    163 C49        -3.2780   -3.5100   -1.4440 c3        1 MOL      0.550472
    164 C50        -2.2450   -2.8590   -0.4970 c         1 MOL      0.130884
    165 O22        -2.0780   -1.6910   -0.6660 o         1 MOL     -0.472349
    166 C51        -2.7460   -4.8470   -1.9840 c3        1 MOL     -0.202485
    167 C52        -3.2200   -5.1200   -3.4930 c3        1 MOL     -0.213213
    168 C53        -2.9730   -6.5780   -3.8800 c         1 MOL      0.683403
    169 O23        -2.0350   -6.6870   -4.7170 o         1 MOL     -0.634896
    170 O24        -3.6630   -7.5080   -3.3850 o         1 MOL     -0.634896
    171 H80        -4.7230   -3.8100    0.1050 hn        1 MOL      0.370871
    172 H81        -3.2200   -2.8710   -2.3290 h1        1 MOL     -0.067080
    173 H82        -3.0600   -5.6710   -1.3440 hc        1 MOL      0.071691
    174 H83        -1.6680   -4.9700   -1.9450 hc        1 MOL      0.071691
    175 H84        -2.6280   -4.4200   -4.0860 hc        1 MOL      0.059053
    176 H85        -4.2820   -4.8900   -3.4960 hc        1 MOL      0.059053
    177 N15        -1.5940   -3.5280    0.4480 n         1 MOL     -0.197092
    178 C54        -1.6780   -4.8910    1.0770 c3        1 MOL     -0.006910
    179 H86        -1.1150   -5.6040    0.4760 h1        1 MOL      0.035099
    180 H87        -1.2590   -4.8530    2.0820 h1        1 MOL      0.035099
    181 H88        -2.7210   -5.2040    1.1300 h1        1 MOL      0.035099
    182 H89        -0.8800   -2.9510    0.8700 hn        1 MOL      0.263099
    183 Ca1        -0.4820    0.4860   -1.2540 Ca        1 MOL      1.808357
    184 O25        -1.5450   -0.8880   -3.5210 oh        1 MOL     -0.921862
    185 H90        -2.4010   -0.9890   -3.9310 ho        1 MOL      0.445903
    186 H91        -1.0230   -1.6160   -3.8640 ho        1 MOL      0.445903
    187 O26        -3.0630    0.8340   -1.2850 oh        1 MOL     -0.921862
    188 H92        -3.5500    0.2050   -0.7520 ho        1 MOL      0.445903
    189 H93        -3.6760    1.0840   -1.9750 ho        1 MOL      0.445903
    190 O27         1.4570   -0.4090   -2.6080 oh        1 MOL     -0.921862
    191 H94         2.2920   -0.6460   -2.2160 ho        1 MOL      0.445903
    192 H95         1.6880    0.2870   -3.2350 ho        1 MOL      0.445903
@<TRIPOS>BOND
     1    1    2 1   
     2    1    4 1   
     3    1    5 1   
     4    1    6 1   
     5    2    3 2   
     6    2    7 1   
     7    7    8 1   
     8    7   15 1   
     9    8    9 1   
    10    8   11 1   
    11    8   16 1   
    12    9   10 2   
    13    9   19 1   
    14   11   12 1   
    15   11   17 1   
    16   11   18 1   
    17   12   13 1   
    18   12   14 1   
    19   19   20 1   
    20   19   28 1   
    21   20   21 1   
    22   20   23 1   
    23   20   29 1   
    24   21   22 2   
    25   21   41 1   
    26   23   24 1   
    27   23   30 1   
    28   23   31 1   
    29   24   25 1   
    30   24   32 1   
    31   24   33 1   
    32   25   26 1   
    33   25   34 1   
    34   25   35 1   
    35   26   27 1   
    36   26   36 1   
    37   26   37 1   
    38   27   38 1   
    39   27   39 1   
    40   27   40 1   
    41   41   42 1   
    42   41   49 1   
    43   42   43 1   
    44   42   45 1   
    45   42   50 1   
    46   43   44 2   
    47   43   53 1   
    48   45   46 1   
    49   45   51 1   
    50   45   52 1   
    51   46   47 1   
    52   46   48 1   
    53   53   54 1   
    54   53   57 1   
    55   54   55 1   
    56   54   58 1   
    57   54   59 1   
    58   55   56 2   
    59   55   60 1   
    60   60   61 1   
    61   60   68 1   
    62   61   62 1   
    63   61   64 1   
    64   61   69 1   
    65   62   63 2   
    66   62   72 1   
    67   64   65 1   
    68   64   70 1   
    69   64   71 1   
    70   65   66 1   
    71   65   67 1   
    72   72   73 1   
    73   72   76 1   
    74   73   74 1   
    75   73   77 1   
    76   73   78 1   
    77   74   75 2   
    78   74   79 1   
    79   79   80 1   
    80   79   86 1   
    81   80   81 1   
    82   80   83 1   
    83   80   87 1   
    84   81   82 2   
    85   81   93 1   
    86   83   84 1   
    87   83   85 1   
    88   83   88 1   
    89   84   90 1   
    90   84   91 1   
    91   84   92 1   
    92   85   89 1   
    93   93   94 1   
    94   93  101 1   
    95   94   95 1   
    96   94   97 1   
    97   94  102 1   
    98   95   96 2   
    99   95  112 1   
   100   97   98 1   
   101   97   99 1   
   102   97  103 1   
   103   98  100 1   
   104   98  104 1   
   105   98  105 1   
   106   99  106 1   
   107   99  107 1   
   108   99  108 1   
   109  100  109 1   
   110  100  110 1   
   111  100  111 1   
   112  112  113 1   
   113  112  119 1   
   114  113  114 1   
   115  113  116 1   
   116  113  120 1   
   117  114  115 2   
   118  114  126 1   
   119  116  117 1   
   120  116  118 1   
   121  116  121 1   
   122  117  123 1   
   123  117  124 1   
   124  117  125 1   
   125  118  122 1   
   126  126  127 1   
   127  126  133 1   
   128  127  128 1   
   129  127  130 1   
   130  127  134 1   
   131  128  129 2   
   132  128  140 1   
   133  130  131 1   
   134  130  132 1   
   135  130  135 1   
   136  131  137 1   
   137  131  138 1   
   138  131  139 1   
   139  132  136 1   
   140  140  141 1   
   141  140  149 1   
   142  141  142 1   
   143  141  144 1   
   144  141  150 1   
   145  142  143 2   
   146  142  162 1   
   147  144  145 1   
   148  144  151 1   
   149  144  152 1   
   150  145  146 1   
   151  145  153 1   
   152  145  154 1   
   153  146  147 1   
   154  146  155 1   
   155  146  156 1   
   156  147  148 1   
   157  147  157 1   
   158  147  158 1   
   159  148  159 1   
   160  148  160 1   
   161  148  161 1   
   162  162  163 1   
   163  162  171 1   
   164  163  164 1   
   165  163  166 1   
   166  163  172 1   
   167  164  165 2   
   168  164  177 1   
   169  166  167 1   
   170  166  173 1   
   171  166  174 1   
   172  167  168 1   
   173  167  175 1   
   174  167  176 1   
   175  168  169 1   
   176  168  170 1   
   177  177  178 1   
   178  177  182 1   
   179  178  179 1   
   180  178  180 1   
   181  178  181 1   
   182  184  185 1   
   183  184  186 1   
   184  187  188 1   
   185  187  189 1   
   186  190  191 1   
   187  190  192 1   
@<TRIPOS>SUBSTRUCTURE
     1 MOL         1 TEMP              0 ****  ****    0 ROOT
