@<TRIPOS>MOLECULE
MOL
  198   191     1     0     0
SMALL
resp


@<TRIPOS>ATOM
      1 C1         -2.6060    4.2240    2.5290 c3        1 MOL     -0.436855
      2 C2         -3.8170    3.3510    2.6880 c         1 MOL      0.778436
      3 O1         -3.8180    2.3140    3.3610 o         1 MOL     -0.633002
      4 H1         -2.5640    4.9390    3.3500 hc        1 MOL      0.115635
      5 H2         -1.7080    3.6070    2.5390 hc        1 MOL      0.115635
      6 H3         -2.6680    4.7630    1.5830 hc        1 MOL      0.115635
      7 N1         -4.9170    3.8840    2.1590 n         1 MOL     -0.628438
      8 C3         -6.2100    3.1550    2.1760 c3        1 MOL      0.349055
      9 C4         -6.2270    1.8220    1.3470 c         1 MOL      0.438689
     10 O2         -5.9260    1.7790    0.1560 o         1 MOL     -0.559087
     11 C5         -7.4190    3.9700    1.7810 c3        1 MOL     -0.307327
     12 C6         -7.2540    4.6050    0.4370 c         1 MOL      0.706478
     13 O3         -6.4900    5.5560    0.2630 o         1 MOL     -0.701990
     14 O4         -7.9750    4.1670   -0.4800 o         1 MOL     -0.701990
     15 H4         -4.9500    4.7470    1.6380 hn        1 MOL      0.354262
     16 H5         -6.3030    2.9010    3.2390 h1        1 MOL     -0.026603
     17 H6         -7.4840    4.8030    2.4810 hc        1 MOL      0.062410
     18 H7         -8.3820    3.4630    1.8390 hc        1 MOL      0.062410
     19 N2         -6.7300    0.7340    1.9550 n         1 MOL     -0.419520
     20 C7         -6.5170   -0.6740    1.6400 c3        1 MOL      0.233360
     21 C8         -7.7070   -1.3400    0.9660 c         1 MOL      0.179843
     22 O5         -7.6710   -2.5460    0.9030 o         1 MOL     -0.540485
     23 C9         -6.0840   -1.3400    2.9910 c3        1 MOL      0.135933
     24 C10        -5.2140   -2.6350    2.7960 c3        1 MOL     -0.004009
     25 C11        -4.8800   -3.3230    4.1310 c3        1 MOL      0.120703
     26 C12        -3.9410   -4.4310    3.7620 c3        1 MOL      0.055327
     27 N3         -3.4550   -5.0270    4.9950 n4        1 MOL     -0.299163
     28 H8         -7.1920    0.8430    2.8450 hn        1 MOL      0.257651
     29 H9         -5.7090   -0.8160    0.9290 h1        1 MOL      0.060802
     30 H10        -6.9220   -1.5940    3.6390 hc        1 MOL     -0.041865
     31 H11        -5.4520   -0.6350    3.5420 hc        1 MOL     -0.041865
     32 H12        -4.3240   -2.4480    2.1980 hc        1 MOL      0.002303
     33 H13        -5.8370   -3.3410    2.2490 hc        1 MOL      0.002303
     34 H14        -5.7930   -3.6540    4.6130 hc        1 MOL     -0.026263
     35 H15        -4.3000   -2.7270    4.8280 hc        1 MOL     -0.026263
     36 H16        -3.1160   -4.1710    3.0960 hx        1 MOL      0.073568
     37 H17        -4.5100   -5.1990    3.2440 hx        1 MOL      0.073568
     38 H18        -4.1200   -5.1810    5.7420 hn        1 MOL      0.273975
     39 H19        -3.0480   -5.9310    4.8150 hn        1 MOL      0.273975
     40 H20        -2.7370   -4.4590    5.4220 hn        1 MOL      0.273975
     41 N4         -8.6970   -0.6430    0.5040 n         1 MOL     -0.029804
     42 C13        -9.9660   -1.1170   -0.0180 c3        1 MOL      0.186736
     43 C14       -10.1860   -0.8560   -1.4820 c         1 MOL      0.246767
     44 O6        -10.0200    0.3090   -1.9250 o         1 MOL     -0.488738
     45 C15       -11.1130   -0.3670    0.7250 c3        1 MOL     -0.249747
     46 C16       -10.7900    1.0850    1.1690 c         1 MOL      0.578401
     47 O7        -11.4000    1.6230    2.1460 o         1 MOL     -0.643282
     48 O8         -9.8920    1.6810    0.5070 o         1 MOL     -0.643282
     49 H21        -8.5950    0.3570    0.6210 hn        1 MOL      0.118301
     50 H22       -10.1190   -2.1810    0.1970 h1        1 MOL      0.078907
     51 H23       -11.4630   -1.0150    1.5250 hc        1 MOL      0.062712
     52 H24       -11.9390   -0.2380    0.0340 hc        1 MOL      0.062712
     53 N5        -10.4780   -1.8420   -2.3640 n         1 MOL     -0.291595
     54 C17       -10.2520   -3.2930   -2.1990 c3        1 MOL     -0.260055
     55 C18        -8.8240   -3.8010   -2.0650 c         1 MOL      0.550580
     56 O9         -8.6280   -4.9270   -1.7940 o         1 MOL     -0.529989
     57 H25       -10.7560   -1.5140   -3.2820 hn        1 MOL      0.299579
     58 H26       -10.6740   -3.8030   -3.0560 h1        1 MOL      0.124830
     59 H27       -10.8210   -3.6670   -1.3430 h1        1 MOL      0.124830
     60 N6         -7.8530   -2.8920   -2.2360 n         1 MOL     -0.272721
     61 C19        -6.3820   -3.2370   -2.2970 c3        1 MOL      0.262333
     62 C20        -5.5600   -1.9920   -1.8270 c         1 MOL      0.289040
     63 O10        -5.9870   -0.8660   -1.9010 o         1 MOL     -0.399998
     64 C21        -5.9920   -3.7100   -3.6790 c3        1 MOL     -0.102807
     65 C22        -6.5500   -2.8090   -4.7980 c         1 MOL      0.564626
     66 O11        -5.8350   -1.7810   -4.9820 o         1 MOL     -0.646060
     67 O12        -7.6500   -3.1540   -5.3340 o         1 MOL     -0.646060
     68 H28        -8.0510   -1.9110   -2.2710 hn        1 MOL      0.194028
     69 H29        -6.1090   -4.0380   -1.6230 h1        1 MOL     -0.032491
     70 H30        -6.4620   -4.6890   -3.7670 hc        1 MOL      0.002772
     71 H31        -4.9120   -3.8170   -3.5910 hc        1 MOL      0.002772
     72 N7         -4.2670   -2.2390   -1.5200 n         1 MOL     -0.299633
     73 C23        -3.3070   -1.2610   -0.9280 c3        1 MOL     -0.131589
     74 C24        -2.1700   -1.8830   -0.0700 c         1 MOL      0.598254
     75 O13        -2.1160   -3.1220    0.1050 o         1 MOL     -0.575038
     76 H32        -3.8190   -3.1280   -1.6850 hn        1 MOL      0.245543
     77 H33        -3.8420   -0.4150   -0.5070 h1        1 MOL      0.115866
     78 H34        -2.7760   -0.8440   -1.7850 h1        1 MOL      0.115866
     79 N8         -1.3470   -1.0600    0.4660 n         1 MOL     -0.397876
     80 C25        -0.2530   -1.3440    1.4620 c3        1 MOL     -0.089226
     81 C26         0.8400   -0.2620    1.3190 c         1 MOL      0.580211
     82 O14         0.8040    0.5150    0.3400 o         1 MOL     -0.501786
     83 C27        -0.7210   -1.3840    2.9600 c3        1 MOL      0.206246
     84 C28        -1.2930   -0.1140    3.4730 c3        1 MOL     -0.506280
     85 O15        -1.7820   -2.3180    2.9670 oh        1 MOL     -0.412040
     86 H35        -1.5670   -0.0920    0.2500 hn        1 MOL      0.257077
     87 H36         0.0980   -2.3430    1.1810 h1        1 MOL      0.100188
     88 H37         0.1170   -1.6550    3.6000 h1        1 MOL      0.020687
     89 H38        -1.3690   -2.8660    3.6400 ho        1 MOL      0.283703
     90 H39        -2.1100    0.1980    2.8300 hc        1 MOL      0.147348
     91 H40        -1.4860   -0.2190    4.5370 hc        1 MOL      0.147348
     92 H41        -0.5010    0.6430    3.4810 hc        1 MOL      0.147348
     93 N9          1.8370   -0.2200    2.1590 n         1 MOL     -0.464182
     94 C29         2.8950    0.8310    2.1780 c3        1 MOL     -0.053295
     95 C30         3.9330    0.4500    1.0360 c         1 MOL      0.552430
     96 O16         4.3720    1.3700    0.2930 o         1 MOL     -0.533435
     97 C31         3.4920    0.9010    3.6540 c3        1 MOL      0.024192
     98 C32         2.3190    1.1150    4.6680 c3        1 MOL      0.022502
     99 C33         4.4240    2.1920    3.6920 c3        1 MOL     -0.292834
    100 C34         2.5840    1.2620    6.1480 c3        1 MOL     -0.247735
    101 H42         1.7930   -0.8410    2.9530 hn        1 MOL      0.228425
    102 H43         2.3590    1.7360    1.9070 h1        1 MOL      0.126839
    103 H44         4.1450    0.0650    3.8790 hc        1 MOL      0.069965
    104 H45         1.6940    0.2320    4.5600 hc        1 MOL      0.043317
    105 H46         1.6110    1.8900    4.3730 hc        1 MOL      0.043317
    106 H47         5.2970    2.0290    3.0480 hc        1 MOL      0.089234
    107 H48         4.0340    3.1240    3.2880 hc        1 MOL      0.089234
    108 H49         4.7370    2.4380    4.7060 hc        1 MOL      0.089234
    109 H50         3.0260    0.3710    6.5800 hc        1 MOL      0.064594
    110 H51         3.2220    2.1200    6.3510 hc        1 MOL      0.064594
    111 H52         1.6260    1.3380    6.6640 hc        1 MOL      0.064594
    112 N10         4.2290   -0.7890    0.7730 n         1 MOL     -0.385126
    113 C35         5.2620   -1.2190   -0.1830 c3        1 MOL     -0.033434
    114 C36         6.2130   -2.1640    0.4810 c         1 MOL      0.599112
    115 O17         5.8070   -2.7340    1.5030 o         1 MOL     -0.525594
    116 C37         4.6720   -1.8720   -1.4870 c3        1 MOL      0.364212
    117 C38         3.6450   -0.9260   -2.1810 c3        1 MOL     -0.313923
    118 O18         5.6570   -2.1520   -2.4940 oh        1 MOL     -0.628636
    119 H53         3.9260   -1.4930    1.4220 hn        1 MOL      0.223571
    120 H54         5.7940   -0.3360   -0.5290 h1        1 MOL      0.099326
    121 H55         4.1590   -2.8120   -1.2840 h1        1 MOL     -0.006403
    122 H56         5.0930   -2.5850   -3.1420 ho        1 MOL      0.399839
    123 H57         3.2200   -1.5870   -2.9340 hc        1 MOL      0.090615
    124 H58         2.8530   -0.6680   -1.4810 hc        1 MOL      0.090615
    125 H59         4.0700   -0.0370   -2.6470 hc        1 MOL      0.090615
    126 N11         7.5050   -2.1610    0.0350 n         1 MOL     -0.483162
    127 C39         8.6060   -2.9300    0.6730 c3        1 MOL     -0.229838
    128 C40         9.9720   -2.2990    0.6980 c         1 MOL      0.681363
    129 O19        10.6690   -2.5440    1.6990 o         1 MOL     -0.586106
    130 C41         8.7110   -4.4100    0.1020 c3        1 MOL      0.393252
    131 C42         9.1820   -4.3930   -1.3890 c3        1 MOL     -0.271766
    132 O20         7.4750   -4.9810    0.1770 oh        1 MOL     -0.571463
    133 H60         7.7150   -1.6060   -0.7730 hn        1 MOL      0.318935
    134 H61         8.2620   -2.9470    1.7070 h1        1 MOL      0.123393
    135 H62         9.4390   -4.9740    0.6930 h1        1 MOL     -0.011760
    136 H63         7.4200   -5.3550    1.0580 ho        1 MOL      0.383807
    137 H64        10.2160   -4.0730   -1.4970 hc        1 MOL      0.075176
    138 H65         9.1330   -5.4550   -1.6310 hc        1 MOL      0.075176
    139 H66         8.4430   -3.8470   -1.9890 hc        1 MOL      0.075176
    140 N12        10.4330   -1.6510   -0.3550 n         1 MOL     -0.478599
    141 C43        11.7390   -1.0260   -0.4130 c3        1 MOL     -0.094755
    142 C44        11.6510    0.2390   -1.2710 c         1 MOL      0.652698
    143 O21        11.0430    0.1960   -2.3710 o         1 MOL     -0.527919
    144 C45        12.8080   -2.0360   -0.8610 c3        1 MOL      0.002687
    145 C46        14.1990   -1.3920   -0.7710 c3        1 MOL     -0.031989
    146 C47        15.3340   -2.5080   -0.9480 c3        1 MOL      0.084266
    147 C48        16.6000   -1.6810   -1.0980 c3        1 MOL      0.003379
    148 N13        17.7630   -2.3580   -1.6490 n4        1 MOL     -0.156226
    149 H67         9.8430   -1.5510   -1.1760 hn        1 MOL      0.290721
    150 H68        12.0670   -0.7540    0.5810 h1        1 MOL      0.117023
    151 H69        12.6670   -2.3470   -1.8970 hc        1 MOL      0.031107
    152 H70        12.7810   -2.9700   -0.2960 hc        1 MOL      0.031107
    153 H71        14.3190   -0.8100    0.1410 hc        1 MOL      0.020511
    154 H72        14.2590   -0.7770   -1.6630 hc        1 MOL      0.020511
    155 H73        15.1570   -3.1170   -1.8270 hc        1 MOL      0.001967
    156 H74        15.4790   -3.1650   -0.0900 hc        1 MOL      0.001967
    157 H75        16.8390   -1.1930   -0.1630 hx        1 MOL      0.069368
    158 H76        16.4060   -0.9900   -1.9170 hx        1 MOL      0.069368
    159 H77        17.6330   -2.7870   -2.5540 hn        1 MOL      0.213047
    160 H78        18.5030   -1.6740   -1.5930 hn        1 MOL      0.213047
    161 H79        17.9680   -3.1070   -1.0020 hn        1 MOL      0.213047
    162 N14        12.1560    1.4010   -0.8610 n         1 MOL     -0.613581
    163 C49        12.1540    2.6440   -1.6520 c3        1 MOL      0.416717
    164 C50        10.7150    3.3140   -1.7310 c         1 MOL      0.225441
    165 O22        10.1520    3.3930   -2.8710 o         1 MOL     -0.491318
    166 C51        13.2410    3.5800   -1.0790 c3        1 MOL     -0.103738
    167 C52        13.5050    4.9310   -1.8570 c3        1 MOL     -0.213323
    168 C53        14.7160    5.6060   -1.2630 c         1 MOL      0.771483
    169 O23        15.1020    5.4130   -0.0870 o         1 MOL     -0.660996
    170 O24        15.3370    6.4900   -1.8640 o         1 MOL     -0.660996
    171 H80        12.6590    1.4490    0.0030 hn        1 MOL      0.280157
    172 H81        12.4480    2.5000   -2.6940 h1        1 MOL      0.016655
    173 H82        14.1800    3.0400   -1.2450 hc        1 MOL      0.006487
    174 H83        13.0660    3.7000   -0.0110 hc        1 MOL      0.006487
    175 H84        12.7230    5.6900   -1.8450 hc        1 MOL      0.057442
    176 H85        13.7430    4.7270   -2.8980 hc        1 MOL      0.057442
    177 N15        10.0150    3.6870   -0.6210 n         1 MOL     -0.227033
    178 C54        10.3170    3.6100    0.8390 c3        1 MOL     -0.100455
    179 H86        10.0670    4.5590    1.3120 h1        1 MOL      0.072456
    180 H87         9.7270    2.8120    1.2910 h1        1 MOL      0.072456
    181 H88        11.3770    3.4020    0.9810 h1        1 MOL      0.072456
    182 H89         9.1830    4.2240   -0.8540 hn        1 MOL      0.267575
    183 Ca1        -9.7500    2.9370   -1.7210 Ca        1 MOL      1.738565
    184 O25        -9.5600    2.3810   -4.4020 oh        1 MOL     -0.874003
    185 H90       -10.2650    2.4570   -5.0350 ho        1 MOL      0.432862
    186 H91        -9.0360    1.6420   -4.7220 ho        1 MOL      0.432862
    187 O26       -12.1650    2.3750   -2.6020 oh        1 MOL     -0.874003
    188 H92       -12.6890    1.9800   -3.2900 ho        1 MOL      0.432862
    189 H93       -12.7950    2.7520   -1.9920 ho        1 MOL      0.432862
    190 O27        -9.6860    5.0030   -3.3860 oh        1 MOL     -0.874003
    191 H94        -9.3100    4.6840   -4.2100 ho        1 MOL      0.432862
    192 H95        -9.7450    5.9480   -3.5040 ho        1 MOL      0.432862
    193 O28       -11.6310    3.8760   -0.0020 oh        1 MOL     -0.874003
    194 H96       -11.3930    3.7770    0.9230 ho        1 MOL      0.432862
    195 H97       -12.5320    4.1850    0.0130 ho        1 MOL      0.432862
    196 O29        -7.3910    1.6830   -2.0290 oh        1 MOL     -0.874003
    197 H98        -6.7370    1.9020   -1.3670 ho        1 MOL      0.432862
    198 H99        -7.2690    0.7440   -2.1800 ho        1 MOL      0.432862
@<TRIPOS>BOND
     1    1    2 1   
     2    1    4 1   
     3    1    5 1   
     4    1    6 1   
     5    2    3 2   
     6    2    7 1   
     7    7    8 1   
     8    7   15 1   
     9    8    9 1   
    10    8   11 1   
    11    8   16 1   
    12    9   10 2   
    13    9   19 1   
    14   11   12 1   
    15   11   17 1   
    16   11   18 1   
    17   12   13 1   
    18   12   14 1   
    19   19   20 1   
    20   19   28 1   
    21   20   21 1   
    22   20   23 1   
    23   20   29 1   
    24   21   22 2   
    25   21   41 1   
    26   23   24 1   
    27   23   30 1   
    28   23   31 1   
    29   24   25 1   
    30   24   32 1   
    31   24   33 1   
    32   25   26 1   
    33   25   34 1   
    34   25   35 1   
    35   26   27 1   
    36   26   36 1   
    37   26   37 1   
    38   27   38 1   
    39   27   39 1   
    40   27   40 1   
    41   41   42 1   
    42   41   49 1   
    43   42   43 1   
    44   42   45 1   
    45   42   50 1   
    46   43   44 2   
    47   43   53 1   
    48   45   46 1   
    49   45   51 1   
    50   45   52 1   
    51   46   47 1   
    52   46   48 1   
    53   53   54 1   
    54   53   57 1   
    55   54   55 1   
    56   54   58 1   
    57   54   59 1   
    58   55   56 2   
    59   55   60 1   
    60   60   61 1   
    61   60   68 1   
    62   61   62 1   
    63   61   64 1   
    64   61   69 1   
    65   62   63 2   
    66   62   72 1   
    67   64   65 1   
    68   64   70 1   
    69   64   71 1   
    70   65   66 1   
    71   65   67 1   
    72   72   73 1   
    73   72   76 1   
    74   73   74 1   
    75   73   77 1   
    76   73   78 1   
    77   74   75 2   
    78   74   79 1   
    79   79   80 1   
    80   79   86 1   
    81   80   81 1   
    82   80   83 1   
    83   80   87 1   
    84   81   82 2   
    85   81   93 1   
    86   83   84 1   
    87   83   85 1   
    88   83   88 1   
    89   84   90 1   
    90   84   91 1   
    91   84   92 1   
    92   85   89 1   
    93   93   94 1   
    94   93  101 1   
    95   94   95 1   
    96   94   97 1   
    97   94  102 1   
    98   95   96 2   
    99   95  112 1   
   100   97   98 1   
   101   97   99 1   
   102   97  103 1   
   103   98  100 1   
   104   98  104 1   
   105   98  105 1   
   106   99  106 1   
   107   99  107 1   
   108   99  108 1   
   109  100  109 1   
   110  100  110 1   
   111  100  111 1   
   112  112  113 1   
   113  112  119 1   
   114  113  114 1   
   115  113  116 1   
   116  113  120 1   
   117  114  115 2   
   118  114  126 1   
   119  116  117 1   
   120  116  118 1   
   121  116  121 1   
   122  117  123 1   
   123  117  124 1   
   124  117  125 1   
   125  118  122 1   
   126  126  127 1   
   127  126  133 1   
   128  127  128 1   
   129  127  130 1   
   130  127  134 1   
   131  128  129 2   
   132  128  140 1   
   133  130  131 1   
   134  130  132 1   
   135  130  135 1   
   136  131  137 1   
   137  131  138 1   
   138  131  139 1   
   139  132  136 1   
   140  140  141 1   
   141  140  149 1   
   142  141  142 1   
   143  141  144 1   
   144  141  150 1   
   145  142  143 2   
   146  142  162 1   
   147  144  145 1   
   148  144  151 1   
   149  144  152 1   
   150  145  146 1   
   151  145  153 1   
   152  145  154 1   
   153  146  147 1   
   154  146  155 1   
   155  146  156 1   
   156  147  148 1   
   157  147  157 1   
   158  147  158 1   
   159  148  159 1   
   160  148  160 1   
   161  148  161 1   
   162  162  163 1   
   163  162  171 1   
   164  163  164 1   
   165  163  166 1   
   166  163  172 1   
   167  164  165 2   
   168  164  177 1   
   169  166  167 1   
   170  166  173 1   
   171  166  174 1   
   172  167  168 1   
   173  167  175 1   
   174  167  176 1   
   175  168  169 1   
   176  168  170 1   
   177  177  178 1   
   178  177  182 1   
   179  178  179 1   
   180  178  180 1   
   181  178  181 1   
   182  184  185 1   
   183  184  186 1   
   184  187  188 1   
   185  187  189 1   
   186  190  191 1   
   187  190  192 1   
   188  193  194 1   
   189  193  195 1   
   190  196  197 1   
   191  196  198 1   
@<TRIPOS>SUBSTRUCTURE
     1 MOL         1 TEMP              0 ****  ****    0 ROOT
