@<TRIPOS>MOLECULE
MOL
  195   189     1     0     0
SMALL
resp


@<TRIPOS>ATOM
      1 C1         -3.9760   -2.1880    3.4600 c3        1 MOL     -0.506572
      2 C2         -3.1850   -2.5260    2.1580 c         1 MOL      0.751545
      3 O1         -2.5770   -1.6900    1.5430 o         1 MOL     -0.484794
      4 H1         -3.3830   -1.5180    4.0810 hc        1 MOL      0.129850
      5 H2         -4.9160   -1.7020    3.1980 hc        1 MOL      0.129850
      6 H3         -4.1820   -3.1060    4.0090 hc        1 MOL      0.129850
      7 N1         -3.3540   -3.8120    1.6880 n         1 MOL     -0.798646
      8 C3         -2.7680   -4.4230    0.5000 c3        1 MOL      0.071817
      9 C4         -1.2060   -4.4540    0.5460 c         1 MOL      0.686584
     10 O2         -0.5470   -4.1290   -0.4860 o         1 MOL     -0.544377
     11 C5         -3.4040   -3.8060   -0.8050 c3        1 MOL     -0.481748
     12 C6         -4.8860   -3.6180   -0.8410 c         1 MOL      1.178470
     13 O3         -5.6550   -4.5720   -0.6040 o         1 MOL     -0.875526
     14 O4         -5.4530   -2.5410   -1.1770 o         1 MOL     -0.875526
     15 H4         -3.8950   -4.3950    2.2980 hn        1 MOL      0.351604
     16 H5         -3.0970   -5.4460    0.6590 h1        1 MOL      0.103887
     17 H6         -3.1360   -4.5130   -1.5850 hc        1 MOL      0.129557
     18 H7         -2.8130   -2.9090   -0.9860 hc        1 MOL      0.129557
     19 N2         -0.5760   -4.7980    1.6610 n         1 MOL     -0.681901
     20 C7          0.9110   -4.7330    1.7550 c3        1 MOL      0.010879
     21 C8          1.6170   -5.8240    0.9730 c         1 MOL      0.633756
     22 O5          1.1620   -6.9390    0.8240 o         1 MOL     -0.561844
     23 C9          1.3890   -4.4510    3.2180 c3        1 MOL      0.331266
     24 C10         1.2710   -5.5770    4.2260 c3        1 MOL      0.028153
     25 C11         0.7440   -3.1400    3.7550 c3        1 MOL     -0.272672
     26 C12        -0.1200   -6.1210    4.6240 c3        1 MOL     -0.044740
     27 H8         -1.0330   -5.0480    2.5190 hn        1 MOL      0.360709
     28 H9          1.1200   -3.7710    1.2880 h1        1 MOL      0.036617
     29 H10         2.4570   -4.2160    3.2790 hc        1 MOL     -0.001003
     30 H11         1.6690   -5.1190    5.1350 hc        1 MOL     -0.018791
     31 H12         1.9590   -6.4000    4.0070 hc        1 MOL     -0.018791
     32 H13        -0.3130   -3.3690    3.8820 hc        1 MOL      0.064374
     33 H14         1.2120   -2.8630    4.6980 hc        1 MOL      0.064374
     34 H15         0.7950   -2.2900    3.0660 hc        1 MOL      0.064374
     35 H16        -0.1230   -6.6170    5.5870 hc        1 MOL     -0.007160
     36 H17        -0.7950   -5.2780    4.7470 hc        1 MOL     -0.007160
     37 H18        -0.4100   -6.8270    3.8400 hc        1 MOL     -0.007160
     38 N3          2.8200   -5.5070    0.3820 n         1 MOL     -0.669940
     39 C13         3.6010   -4.2650    0.5990 c3        1 MOL      0.107078
     40 C14         3.7550   -3.4460   -0.6590 c         1 MOL      0.614133
     41 O6          4.3900   -2.3860   -0.5900 o         1 MOL     -0.558198
     42 C15         4.8910   -4.4740    1.2890 c3        1 MOL     -0.067918
     43 C16         5.8730   -5.4560    0.6340 c         1 MOL      0.710930
     44 O7          5.5730   -6.0130   -0.4620 o         1 MOL     -0.718752
     45 O8          6.9650   -5.6360    1.2410 o         1 MOL     -0.718752
     46 H19         3.2820   -6.3060   -0.0150 hn        1 MOL      0.342426
     47 H20         3.0080   -3.5680    1.1980 h1        1 MOL     -0.028984
     48 H21         4.5590   -4.8040    2.2790 hc        1 MOL     -0.017644
     49 H22         5.4200   -3.5460    1.4830 hc        1 MOL     -0.017644
     50 N4          3.2640   -3.9410   -1.8130 n         1 MOL     -0.411853
     51 C17         3.4670   -3.3500   -3.1270 c3        1 MOL     -0.089573
     52 C18         4.9390   -2.9490   -3.4060 c         1 MOL      0.619050
     53 O9          5.7090   -3.8470   -3.6970 o         1 MOL     -0.580752
     54 H23         2.8480   -4.8650   -1.8220 hn        1 MOL      0.331555
     55 H24         2.8120   -2.4870   -3.2650 h1        1 MOL      0.061079
     56 H25         3.1170   -4.0690   -3.8710 h1        1 MOL      0.061079
     57 N5          5.2400   -1.7280   -3.4910 n         1 MOL     -0.529534
     58 C19         6.5990   -1.1720   -3.9050 c3        1 MOL      0.156679
     59 C20         7.4550   -0.9980   -2.6570 c         1 MOL      0.325977
     60 O10         8.6640   -0.5780   -2.8310 o         1 MOL     -0.574162
     61 C21         6.4120    0.1780   -4.6050 c3        1 MOL     -0.261194
     62 C22         5.3830    1.0260   -3.8730 c         1 MOL      0.789154
     63 O11         5.6290    1.6000   -2.7910 o         1 MOL     -0.723312
     64 O12         4.2700    1.2030   -4.4500 o         1 MOL     -0.723312
     65 H26         4.4610   -1.1010   -3.3280 hn        1 MOL      0.296285
     66 H27         7.1230   -1.8720   -4.5670 h1        1 MOL      0.088045
     67 H28         5.9970    0.0430   -5.6040 hc        1 MOL      0.043717
     68 H29         7.3630    0.6990   -4.7130 hc        1 MOL      0.043717
     69 N6          7.0470   -1.3030   -1.3870 n         1 MOL     -0.036504
     70 C23         7.7660   -1.2780   -0.0650 c3        1 MOL     -0.300999
     71 C24         7.9600    0.2120    0.3950 c         1 MOL      0.706155
     72 O13         8.6270    0.4660    1.3380 o         1 MOL     -0.597696
     73 H30         6.1050   -1.6740   -1.2890 hn        1 MOL      0.169062
     74 H31         8.7310   -1.7300   -0.2710 h1        1 MOL      0.148344
     75 H32         7.2680   -1.8620    0.7080 h1        1 MOL      0.148344
     76 N7          7.3920    1.2120   -0.3710 n         1 MOL     -0.544982
     77 C25         7.5070    2.6990   -0.1250 c3        1 MOL      0.198073
     78 C26         6.9500    3.1650    1.2260 c         1 MOL      0.316640
     79 O14         7.1830    4.3230    1.5990 o         1 MOL     -0.520346
     80 C27         8.9240    3.2570   -0.3360 c3        1 MOL     -0.204856
     81 C28         9.5700    2.7570   -1.6440 c3        1 MOL      0.038566
     82 C29        11.0040    3.2640   -1.9080 c         1 MOL      0.657761
     83 N8         11.6590    2.8990   -2.9960 n         1 MOL     -0.842043
     84 O15        11.4910    3.9990   -1.1100 o         1 MOL     -0.584274
     85 H33         7.1080    0.9510   -1.3100 hn        1 MOL      0.201452
     86 H34         6.8130    3.1480   -0.8310 h1        1 MOL      0.106278
     87 H35         9.5210    2.8890    0.4940 hc        1 MOL      0.074554
     88 H36         8.8940    4.3460   -0.3360 hc        1 MOL      0.074554
     89 H37         8.9820    3.1150   -2.4920 hc        1 MOL      0.033633
     90 H38         9.6140    1.6690   -1.6820 hc        1 MOL      0.033633
     91 H39        11.2930    2.3440   -3.7600 hn        1 MOL      0.352201
     92 H40        12.6290    3.1580   -3.1000 hn        1 MOL      0.352201
     93 N9          6.1120    2.4530    1.9700 n         1 MOL     -0.101323
     94 C30         5.4250    3.0320    3.2110 c3        1 MOL     -0.194424
     95 C31         3.8590    3.1220    3.0720 c         1 MOL      0.540361
     96 O16         3.1090    3.6340    3.9200 o         1 MOL     -0.571073
     97 C32         5.8290    2.4210    4.5600 c3        1 MOL      0.393984
     98 C33         5.5480    0.9350    4.5960 c3        1 MOL     -0.452793
     99 C34         7.3670    2.7120    4.8010 c3        1 MOL     -0.452793
    100 H41         5.9050    1.5160    1.6730 hn        1 MOL      0.189601
    101 H42         5.8060    4.0490    3.3290 h1        1 MOL      0.114752
    102 H43         5.2780    2.9380    5.3480 hc        1 MOL     -0.042870
    103 H44         5.7330    0.5390    3.5990 hc        1 MOL      0.108220
    104 H45         6.1230    0.4240    5.3510 hc        1 MOL      0.108220
    105 H46         4.4740    0.8640    4.7860 hc        1 MOL      0.108220
    106 H47         7.7280    2.3800    5.7630 hc        1 MOL      0.108220
    107 H48         7.9180    2.1710    4.0330 hc        1 MOL      0.108220
    108 H49         7.6250    3.7480    4.5640 hc        1 MOL      0.108220
    109 N10         3.3090    2.5160    2.0370 n         1 MOL     -0.462747
    110 C35         1.8870    2.2660    1.9150 c3        1 MOL      0.362049
    111 C36         1.2470    2.8320    0.5470 c         1 MOL      0.433448
    112 O17         2.0300    3.2450   -0.3330 o         1 MOL     -0.500837
    113 C37         1.6580    0.7410    2.0390 c3        1 MOL     -0.002020
    114 C38         0.2920    0.2700    1.7850 c         1 MOL      0.412891
    115 N11        -0.0120   -0.6160    0.8510 n         1 MOL     -0.465156
    116 O18        -0.5840    0.8500    2.4520 o         1 MOL     -0.563452
    117 H50         3.9570    2.2440    1.3140 hn        1 MOL      0.222827
    118 H51         1.3120    2.7000    2.7320 h1        1 MOL      0.018611
    119 H52         1.9390    0.2990    2.9900 hc        1 MOL     -0.017347
    120 H53         2.2570    0.2750    1.2630 hc        1 MOL     -0.017347
    121 H54         0.7420   -0.9620    0.2860 hn        1 MOL      0.307181
    122 H55        -1.0040   -0.7960    0.8970 hn        1 MOL      0.307181
    123 N12        -0.0530    2.9480    0.4480 n         1 MOL     -0.433990
    124 C39        -0.7730    3.7090   -0.4700 c3        1 MOL      0.194425
    125 C40        -2.1430    4.0500    0.0480 c         1 MOL      0.494719
    126 O19        -2.4400    3.7850    1.2160 o         1 MOL     -0.514040
    127 C41        -0.8460    3.0690   -1.8490 c3        1 MOL     -0.356052
    128 C42        -1.9090    2.1240   -2.0750 ca        1 MOL      0.128897
    129 C43        -1.9070    0.8020   -1.5750 ca        1 MOL     -0.139723
    130 C44        -3.0260    2.5310   -2.8850 ca        1 MOL     -0.139723
    131 C45        -3.0540   -0.0670   -1.7520 ca        1 MOL     -0.376011
    132 C46        -4.1790    1.6970   -3.0400 ca        1 MOL     -0.376011
    133 C47        -4.1860    0.4330   -2.4430 ca        1 MOL      0.423048
    134 O20        -5.4090   -0.1770   -2.3910 oh        1 MOL     -0.587536
    135 H56        -0.6020    2.5140    1.1810 hn        1 MOL      0.239786
    136 H57        -0.2470    4.6570   -0.5720 h1        1 MOL      0.062842
    137 H58         0.0700    2.4930   -2.0070 hc        1 MOL      0.119088
    138 H59        -0.9350    3.9210   -2.5310 hc        1 MOL      0.119088
    139 H60        -1.1450    0.5200   -0.8650 ha        1 MOL      0.122586
    140 H61        -2.9820    3.5210   -3.3030 ha        1 MOL      0.122586
    141 H62        -3.1450   -1.0280   -1.2490 ha        1 MOL      0.187510
    142 H63        -5.0460    2.0380   -3.6000 ha        1 MOL      0.187510
    143 H64        -5.3130   -1.0640   -2.0240 ho        1 MOL      0.413216
    144 N13        -3.0450    4.7000   -0.7150 n         1 MOL     -0.408485
    145 C48        -4.4000    4.9030   -0.4370 c3        1 MOL      0.441187
    146 C49        -5.2930    4.7500   -1.6590 c         1 MOL      0.724252
    147 O21        -4.9700    5.3090   -2.6920 o         1 MOL     -0.619794
    148 C50        -4.7410    6.1260    0.4450 c3        1 MOL     -0.407353
    149 C51        -4.4250    7.5920   -0.1710 c3        1 MOL     -0.062766
    150 C52        -4.3360    8.6300    0.9110 c         1 MOL      0.735646
    151 O22        -3.2580    8.8980    1.4320 o         1 MOL     -0.686371
    152 O23        -5.3160    9.3620    1.1050 o         1 MOL     -0.686371
    153 H65        -2.7910    5.0220   -1.6380 hn        1 MOL      0.217361
    154 H66        -4.7140    4.0340    0.1310 h1        1 MOL     -0.148077
    155 H67        -4.0760    6.1620    1.3060 hc        1 MOL      0.127251
    156 H68        -5.8150    6.1310    0.6540 hc        1 MOL      0.127251
    157 H69        -5.2050    7.9190   -0.8660 hc        1 MOL     -0.010081
    158 H70        -3.4940    7.5220   -0.7340 hc        1 MOL     -0.010081
    159 N14        -6.4750    4.1160   -1.5680 n         1 MOL     -0.671471
    160 C53        -6.8600    3.0930   -0.5670 c3        1 MOL      0.026364
    161 C54        -7.2720    3.6810    0.8020 c         1 MOL      0.653113
    162 O24        -7.9540    4.6930    0.8970 o         1 MOL     -0.536111
    163 C55        -7.9380    2.2140   -1.2630 c3        1 MOL     -0.005652
    164 C56        -8.4390    1.1690   -0.3190 c3        1 MOL     -0.237022
    165 C57        -9.3210    0.1680   -1.0360 c         1 MOL      0.692376
    166 O25        -8.8900   -0.9860   -1.3880 o         1 MOL     -0.689877
    167 O26       -10.5660    0.4490   -1.1880 o         1 MOL     -0.689877
    168 H71        -7.1550    4.2730   -2.3110 hn        1 MOL      0.336919
    169 H72        -6.0030    2.4500   -0.3660 h1        1 MOL      0.087540
    170 H73        -7.5040    1.7390   -2.1390 hc        1 MOL      0.045352
    171 H74        -8.6790    2.9330   -1.6070 hc        1 MOL      0.045352
    172 H75        -8.9560    1.7730    0.4300 hc        1 MOL      0.008723
    173 H76        -7.6180    0.6940    0.2230 hc        1 MOL      0.008723
    174 N15        -6.7710    2.9630    1.8490 n         1 MOL     -0.388607
    175 C58        -6.8380    3.2930    3.2710 c3        1 MOL     -0.121782
    176 H77        -5.9760    3.9030    3.5420 h1        1 MOL      0.077276
    177 H78        -7.7540    3.8490    3.4720 h1        1 MOL      0.077276
    178 H79        -6.8330    2.3750    3.8580 h1        1 MOL      0.077276
    179 H80        -6.2880    2.1150    1.6210 hn        1 MOL      0.283485
    180 Ca1        -7.8780   -3.2950   -0.4780 Ca        1 MOL      1.802691
    181 O27        -8.4460   -5.9490   -0.8870 oh        1 MOL     -0.901334
    182 H81        -7.7710   -6.3790   -1.4040 ho        1 MOL      0.421300
    183 H82        -9.1710   -6.5760   -0.8700 ho        1 MOL      0.421300
    184 O28       -10.4000   -2.9480    1.0550 oh        1 MOL     -0.901334
    185 H83       -10.4540   -2.3380    1.7780 ho        1 MOL      0.421300
    186 H84       -11.3090   -3.0930    0.7840 ho        1 MOL      0.421300
    187 O29        -6.6570   -1.4360    1.0320 oh        1 MOL     -0.901334
    188 H85        -5.8420   -1.1160    0.6690 ho        1 MOL      0.421300
    189 H86        -6.8830   -0.8040    1.7190 ho        1 MOL      0.421300
    190 O30       -10.2930   -3.8180   -1.9340 oh        1 MOL     -0.901334
    191 H87       -10.2750   -4.0740   -2.8580 ho        1 MOL      0.421300
    192 H88       -10.9710   -4.3590   -1.5420 ho        1 MOL      0.421300
    193 O31        -7.2590   -4.0890   -2.9830 oh        1 MOL     -0.901334
    194 H89        -7.9120   -4.0540   -3.6860 ho        1 MOL      0.421300
    195 H90        -6.4350   -4.2600   -3.4280 ho        1 MOL      0.421300
@<TRIPOS>BOND
     1    1    2 1   
     2    1    4 1   
     3    1    5 1   
     4    1    6 1   
     5    2    3 2   
     6    2    7 1   
     7    7    8 1   
     8    7   15 1   
     9    8    9 1   
    10    8   11 1   
    11    8   16 1   
    12    9   10 2   
    13    9   19 1   
    14   11   12 1   
    15   11   17 1   
    16   11   18 1   
    17   12   13 1   
    18   12   14 1   
    19   19   20 1   
    20   19   27 1   
    21   20   21 1   
    22   20   23 1   
    23   20   28 1   
    24   21   22 2   
    25   21   38 1   
    26   23   24 1   
    27   23   25 1   
    28   23   29 1   
    29   24   26 1   
    30   24   30 1   
    31   24   31 1   
    32   25   32 1   
    33   25   33 1   
    34   25   34 1   
    35   26   35 1   
    36   26   36 1   
    37   26   37 1   
    38   38   39 1   
    39   38   46 1   
    40   39   40 1   
    41   39   42 1   
    42   39   47 1   
    43   40   41 2   
    44   40   50 1   
    45   42   43 1   
    46   42   48 1   
    47   42   49 1   
    48   43   44 1   
    49   43   45 1   
    50   50   51 1   
    51   50   54 1   
    52   51   52 1   
    53   51   55 1   
    54   51   56 1   
    55   52   53 2   
    56   52   57 1   
    57   57   58 1   
    58   57   65 1   
    59   58   59 1   
    60   58   61 1   
    61   58   66 1   
    62   59   60 2   
    63   59   69 1   
    64   61   62 1   
    65   61   67 1   
    66   61   68 1   
    67   62   63 1   
    68   62   64 1   
    69   69   70 1   
    70   69   73 1   
    71   70   71 1   
    72   70   74 1   
    73   70   75 1   
    74   71   72 2   
    75   71   76 1   
    76   76   77 1   
    77   76   85 1   
    78   77   78 1   
    79   77   80 1   
    80   77   86 1   
    81   78   79 2   
    82   78   93 1   
    83   80   81 1   
    84   80   87 1   
    85   80   88 1   
    86   81   82 1   
    87   81   89 1   
    88   81   90 1   
    89   82   83 1   
    90   82   84 2   
    91   83   91 1   
    92   83   92 1   
    93   93   94 1   
    94   93  100 1   
    95   94   95 1   
    96   94   97 1   
    97   94  101 1   
    98   95   96 2   
    99   95  109 1   
   100   97   98 1   
   101   97   99 1   
   102   97  102 1   
   103   98  103 1   
   104   98  104 1   
   105   98  105 1   
   106   99  106 1   
   107   99  107 1   
   108   99  108 1   
   109  109  110 1   
   110  109  117 1   
   111  110  111 1   
   112  110  113 1   
   113  110  118 1   
   114  111  112 2   
   115  111  123 1   
   116  113  114 1   
   117  113  119 1   
   118  113  120 1   
   119  114  115 1   
   120  114  116 2   
   121  115  121 1   
   122  115  122 1   
   123  123  124 1   
   124  123  135 1   
   125  124  125 1   
   126  124  127 1   
   127  124  136 1   
   128  125  126 2   
   129  125  144 1   
   130  127  128 1   
   131  127  137 1   
   132  127  138 1   
   133  128  129 ar  
   134  128  130 ar  
   135  129  131 ar  
   136  129  139 1   
   137  130  132 ar  
   138  130  140 1   
   139  131  133 ar  
   140  131  141 1   
   141  132  133 ar  
   142  132  142 1   
   143  133  134 1   
   144  134  143 1   
   145  144  145 1   
   146  144  153 1   
   147  145  146 1   
   148  145  148 1   
   149  145  154 1   
   150  146  147 2   
   151  146  159 1   
   152  148  149 1   
   153  148  155 1   
   154  148  156 1   
   155  149  150 1   
   156  149  157 1   
   157  149  158 1   
   158  150  151 1   
   159  150  152 1   
   160  159  160 1   
   161  159  168 1   
   162  160  161 1   
   163  160  163 1   
   164  160  169 1   
   165  161  162 2   
   166  161  174 1   
   167  163  164 1   
   168  163  170 1   
   169  163  171 1   
   170  164  165 1   
   171  164  172 1   
   172  164  173 1   
   173  165  166 1   
   174  165  167 1   
   175  174  175 1   
   176  174  179 1   
   177  175  176 1   
   178  175  177 1   
   179  175  178 1   
   180  181  182 1   
   181  181  183 1   
   182  184  185 1   
   183  184  186 1   
   184  187  188 1   
   185  187  189 1   
   186  190  191 1   
   187  190  192 1   
   188  193  194 1   
   189  193  195 1   
@<TRIPOS>SUBSTRUCTURE
     1 MOL         1 TEMP              0 ****  ****    0 ROOT
