@<TRIPOS>MOLECULE
MOL
  195   189     1     0     0
SMALL
resp


@<TRIPOS>ATOM
      1 C1         -6.0640   -2.1950    5.5040 c3        1 MOL     -0.395547
      2 C2         -5.4840   -1.8120    4.1170 c         1 MOL      0.747857
      3 O1         -5.1830   -2.6720    3.3120 o         1 MOL     -0.598417
      4 H1         -5.2800   -2.1240    6.2580 hc        1 MOL      0.101707
      5 H2         -6.8760   -1.5140    5.7600 hc        1 MOL      0.101707
      6 H3         -6.4430   -3.2170    5.4720 hc        1 MOL      0.101707
      7 N1         -5.3950   -0.5290    3.8240 n         1 MOL     -0.534741
      8 C3         -5.1610    0.0900    2.4720 c3        1 MOL      0.277734
      9 C4         -3.7660   -0.1460    1.9370 c         1 MOL      0.028199
     10 O2         -3.4020    0.5070    0.9690 o         1 MOL     -0.278877
     11 C5         -5.3320    1.5950    2.6310 c3        1 MOL     -0.305787
     12 C6         -6.5870    1.9310    3.3970 c         1 MOL      0.779319
     13 O3         -6.6780    1.6610    4.6150 o         1 MOL     -0.712832
     14 O4         -7.5040    2.5460    2.8370 o         1 MOL     -0.712832
     15 H4         -5.6200    0.0760    4.6050 hn        1 MOL      0.253386
     16 H5         -6.0000   -0.1870    1.8350 h1        1 MOL      0.111093
     17 H6         -5.2560    2.1380    1.6890 hc        1 MOL      0.022794
     18 H7         -4.5360    2.0590    3.2220 hc        1 MOL      0.022794
     19 N2         -2.8980   -0.9570    2.5610 n         1 MOL     -0.038842
     20 C7         -1.4290   -0.8790    2.4670 c3        1 MOL      0.038425
     21 C8         -0.7980   -2.2270    1.9270 c         1 MOL      0.484655
     22 O5         -1.1220   -3.2960    2.4970 o         1 MOL     -0.523438
     23 C9         -0.8840   -0.5440    3.9190 c3        1 MOL     -0.365647
     24 C10        -1.3330    0.8620    4.4800 c3        1 MOL      0.005135
     25 C11        -0.4350    1.3390    5.5690 c3        1 MOL     -0.095985
     26 C12         0.8310    2.0110    5.0010 c3        1 MOL      0.320459
     27 N3          1.5780    2.5400    6.1320 n4        1 MOL     -0.520651
     28 H8         -3.3170   -1.6220    3.2070 hn        1 MOL      0.176385
     29 H9         -1.2250   -0.0550    1.7820 h1        1 MOL      0.076557
     30 H10         0.2050   -0.5950    3.8410 hc        1 MOL      0.130098
     31 H11        -1.3060   -1.3030    4.5750 hc        1 MOL      0.130098
     32 H12        -2.2760    0.6230    4.9810 hc        1 MOL      0.047445
     33 H13        -1.4790    1.5370    3.6390 hc        1 MOL      0.047445
     34 H14        -0.0350    0.5050    6.1490 hc        1 MOL      0.036590
     35 H15        -0.8830    2.0930    6.2130 hc        1 MOL      0.036590
     36 H16         0.5600    2.8860    4.4120 hx        1 MOL      0.016786
     37 H17         1.3270    1.2930    4.3510 hx        1 MOL      0.016786
     38 H18         2.4550    2.9230    5.7990 hn        1 MOL      0.356939
     39 H19         1.1010    3.3280    6.5360 hn        1 MOL      0.356939
     40 H20         1.8280    1.8720    6.8480 hn        1 MOL      0.356939
     41 N4          0.1050   -2.2640    0.9820 n         1 MOL     -0.343133
     42 C13         0.8580   -1.1660    0.3150 c3        1 MOL      0.025473
     43 C14         1.3340    0.0370    1.2610 c         1 MOL      0.427328
     44 O6          0.7460    1.0870    1.2850 o         1 MOL     -0.527960
     45 C15         0.1050   -0.7390   -0.9730 c3        1 MOL     -0.144008
     46 C16        -0.4410   -1.8910   -1.8430 c         1 MOL      0.575576
     47 O7          0.0550   -3.0150   -1.6490 o         1 MOL     -0.663512
     48 O8         -1.3290   -1.6670   -2.6750 o         1 MOL     -0.663512
     49 H21         0.1510   -3.1690    0.5230 hn        1 MOL      0.178095
     50 H22         1.7580   -1.6570   -0.0550 h1        1 MOL     -0.008629
     51 H23         0.8920   -0.1650   -1.4620 hc        1 MOL      0.097725
     52 H24        -0.6520   -0.0250   -0.6540 hc        1 MOL      0.097725
     53 N5          2.2210   -0.2330    2.2460 n         1 MOL     -0.140190
     54 C17         3.0810   -1.3500    2.3270 c3        1 MOL     -0.027227
     55 C18         4.1930   -1.2520    3.3960 c         1 MOL      0.587562
     56 O9          4.0230   -0.4240    4.2760 o         1 MOL     -0.568281
     57 H25         2.3250    0.4970    2.9450 hn        1 MOL      0.137058
     58 H26         3.5950   -1.4350    1.3750 h1        1 MOL      0.040080
     59 H27         2.4420   -2.1790    2.6280 h1        1 MOL      0.040080
     60 N6          5.2230   -2.1000    3.3570 n         1 MOL     -0.558387
     61 C19         5.4740   -3.1750    2.3060 c3        1 MOL      0.183072
     62 C20         6.1920   -2.5960    1.1090 c         1 MOL      0.494933
     63 O10         6.8970   -1.5900    1.0800 o         1 MOL     -0.428111
     64 C21         6.1390   -4.4550    2.9120 c3        1 MOL     -0.165830
     65 C22         7.4430   -4.2580    3.7040 c         1 MOL      0.697528
     66 O11         8.4700   -4.9990    3.5260 o         1 MOL     -0.659835
     67 O12         7.5610   -3.3360    4.5410 o         1 MOL     -0.659835
     68 H28         5.8660   -2.1100    4.1420 hn        1 MOL      0.317879
     69 H29         4.4840   -3.5360    2.0180 h1        1 MOL     -0.015240
     70 H30         6.3270   -5.2070    2.1540 hc        1 MOL      0.014551
     71 H31         5.4950   -4.9600    3.6240 hc        1 MOL      0.014551
     72 N7          6.0210   -3.3320    0.0290 n         1 MOL     -0.240802
     73 C23         6.7350   -2.9810   -1.2060 c3        1 MOL     -0.439289
     74 C24         6.4670   -1.6020   -1.7990 c         1 MOL      0.604904
     75 O13         7.4460   -0.9650   -2.1300 o         1 MOL     -0.540352
     76 H32         5.2960   -4.0170    0.0010 hn        1 MOL      0.179521
     77 H33         6.5120   -3.7210   -1.9700 h1        1 MOL      0.182189
     78 H34         7.7990   -2.9390   -0.9730 h1        1 MOL      0.182189
     79 N8          5.2510   -1.1060   -1.8750 n         1 MOL     -0.477334
     80 C25         4.8680    0.2560   -2.4170 c3        1 MOL      0.101100
     81 C26         5.0280    1.2830   -1.3060 c         1 MOL      0.712796
     82 O14         4.7810    1.0270   -0.1340 o         1 MOL     -0.543280
     83 C27         3.4530    0.2370   -2.9140 c3        1 MOL      0.481203
     84 C28         2.9980   -0.6410   -4.1510 c3        1 MOL     -0.351892
     85 O15         2.9790    1.5300   -3.3000 oh        1 MOL     -0.656570
     86 H35         4.5340   -1.7460   -1.5800 hn        1 MOL      0.174056
     87 H36         5.4730    0.5260   -3.2840 h1        1 MOL      0.043355
     88 H37         2.9150   -0.1030   -2.0280 h1        1 MOL     -0.016356
     89 H38         2.0240    1.3970   -3.3880 ho        1 MOL      0.413570
     90 H39         3.2930   -0.0430   -5.0060 hc        1 MOL      0.074433
     91 H40         3.6860   -1.4760   -4.1590 hc        1 MOL      0.074433
     92 H41         1.9600   -0.9670   -4.1360 hc        1 MOL      0.074433
     93 N9          5.3230    2.5280   -1.6990 n         1 MOL     -0.746208
     94 C29         5.5010    3.6610   -0.7620 c3        1 MOL      0.166546
     95 C30         4.2180    4.4160   -0.4000 c         1 MOL      0.417611
     96 O16         4.2280    5.3080    0.4650 o         1 MOL     -0.526989
     97 C31         6.6730    4.5450   -1.2280 c3        1 MOL      0.184071
     98 C32         7.1990    5.5820   -0.3150 c3        1 MOL     -0.130626
     99 C33         6.2960    5.1980   -2.5490 c3        1 MOL     -0.171868
    100 C34         7.4330    5.2380    1.1470 c3        1 MOL     -0.113744
    101 H42         5.5820    2.6320   -2.6600 hn        1 MOL      0.347015
    102 H43         5.8480    3.2190    0.1740 h1        1 MOL      0.082192
    103 H44         7.5110    3.9150   -1.5030 hc        1 MOL      0.016998
    104 H45         6.5320    6.4420   -0.2990 hc        1 MOL      0.050213
    105 H46         8.1410    6.0170   -0.6510 hc        1 MOL      0.050213
    106 H47         5.5360    5.9690   -2.4330 hc        1 MOL      0.031667
    107 H48         7.2380    5.6330   -2.8850 hc        1 MOL      0.031667
    108 H49         6.0500    4.4700   -3.3270 hc        1 MOL      0.031667
    109 H50         8.2210    4.4830    1.2080 hc        1 MOL      0.027871
    110 H51         7.8530    6.0480    1.7450 hc        1 MOL      0.027871
    111 H52         6.5020    4.8530    1.5670 hc        1 MOL      0.027871
    112 N10         3.1960    4.0770   -1.1240 n         1 MOL     -0.233456
    113 C35         1.8710    4.8440   -1.2970 c3        1 MOL     -0.113228
    114 C36         0.6370    3.9600   -1.2810 c         1 MOL      0.783909
    115 O17         0.6890    2.8410   -1.7420 o         1 MOL     -0.552890
    116 C37         1.9550    5.8890   -2.4420 c3        1 MOL      0.286142
    117 C38         2.2240    5.2720   -3.7520 c3        1 MOL     -0.202934
    118 O18         3.0370    6.8150   -2.1910 oh        1 MOL     -0.563936
    119 H53         3.3480    3.2730   -1.7200 hn        1 MOL      0.165083
    120 H54         1.7080    5.4070   -0.3800 h1        1 MOL      0.056724
    121 H55         1.0230    6.4520   -2.4700 h1        1 MOL     -0.002242
    122 H56         2.7980    7.2470   -1.3640 ho        1 MOL      0.371380
    123 H57         3.0230    4.5410   -3.6260 hc        1 MOL      0.070081
    124 H58         1.3540    4.6850   -4.0500 hc        1 MOL      0.070081
    125 H59         2.3000    5.9600   -4.5920 hc        1 MOL      0.070081
    126 N11        -0.5320    4.4120   -0.7510 n         1 MOL     -0.757730
    127 C39        -1.6300    3.4550   -0.4910 c3        1 MOL      0.236943
    128 C40        -2.4230    3.1100   -1.7080 c         1 MOL      0.475417
    129 O19        -2.5900    3.9660   -2.5930 o         1 MOL     -0.543308
    130 C41        -2.5820    4.0570    0.5680 c3        1 MOL      0.383369
    131 C42        -3.3490    5.3680    0.3270 c3        1 MOL     -0.477084
    132 O20        -1.7780    4.2810    1.7490 oh        1 MOL     -0.625762
    133 H60        -0.5500    5.3540   -0.3890 hn        1 MOL      0.359853
    134 H61        -1.2380    2.5130   -0.0960 h1        1 MOL      0.043794
    135 H62        -3.2550    3.2400    0.8100 h1        1 MOL      0.050419
    136 H63        -2.3910    4.1860    2.4790 ho        1 MOL      0.373997
    137 H64        -4.1030    5.1690   -0.4300 hc        1 MOL      0.118734
    138 H65        -3.8440    5.7300    1.2260 hc        1 MOL      0.118734
    139 H66        -2.6110    6.1030    0.0350 hc        1 MOL      0.118734
    140 N12        -3.0680    1.9520   -1.5480 n         1 MOL     -0.342510
    141 C43        -4.0170    1.4110   -2.5640 c3        1 MOL      0.103630
    142 C44        -4.4880   -0.0710   -2.6290 c         1 MOL      0.697137
    143 O21        -4.9280   -0.5190   -3.6530 o         1 MOL     -0.667635
    144 C45        -5.2230    2.3370   -2.7600 c3        1 MOL     -0.213499
    145 C46        -6.1890    2.1650   -1.6110 c3        1 MOL      0.053303
    146 C47        -7.4130    3.1010   -1.6400 c3        1 MOL     -0.075367
    147 C48        -6.9950    4.4790   -1.2360 c3        1 MOL      0.119045
    148 N13        -8.1770    5.3190   -1.1200 n4        1 MOL     -0.535827
    149 H67        -2.8060    1.3630   -0.7640 hn        1 MOL      0.020382
    150 H68        -3.5440    1.4920   -3.5400 h1        1 MOL      0.078013
    151 H69        -5.6670    2.0910   -3.7330 hc        1 MOL      0.056546
    152 H70        -4.9830    3.3940   -2.7740 hc        1 MOL      0.056546
    153 H71        -5.7470    2.4170   -0.6500 hc        1 MOL      0.012258
    154 H72        -6.5290    1.1290   -1.5390 hc        1 MOL      0.012258
    155 H73        -8.1500    2.6380   -0.9720 hc        1 MOL      0.055387
    156 H74        -7.8890    3.0570   -2.6220 hc        1 MOL      0.055387
    157 H75        -6.3470    4.9530   -1.9800 hx        1 MOL      0.070900
    158 H76        -6.4280    4.5830   -0.3120 hx        1 MOL      0.070900
    159 H77        -8.6700    5.4830   -1.9830 hn        1 MOL      0.364153
    160 H78        -8.8450    5.0660   -0.4090 hn        1 MOL      0.364153
    161 H79        -7.9090    6.1910   -0.6810 hn        1 MOL      0.364153
    162 N14        -4.3080   -0.7790   -1.5560 n         1 MOL     -0.388359
    163 C49        -4.5770   -2.1870   -1.4910 c3        1 MOL     -0.107138
    164 C50        -6.0580   -2.5690   -1.3590 c         1 MOL      0.337720
    165 O22        -6.7250   -2.3960   -0.2690 o         1 MOL     -0.523949
    166 C51        -3.7560   -2.7130   -0.2930 c3        1 MOL      1.453744
    167 C52        -3.8120   -4.2190   -0.0730 c3        1 MOL     -0.453307
    168 C53        -3.3750   -5.0520   -1.3170 c         1 MOL      0.898678
    169 O23        -4.1930   -5.1440   -2.2570 o         1 MOL     -0.841665
    170 O24        -2.2600   -5.6620   -1.2560 o         1 MOL     -0.841665
    171 H80        -4.1050   -0.2750   -0.7040 hn        1 MOL      0.209425
    172 H81        -4.3380   -2.6790   -2.4340 h1        1 MOL      0.132799
    173 H82        -4.1150   -2.1250    0.5500 hc        1 MOL     -0.450946
    174 H83        -2.7160   -2.4680   -0.5060 hc        1 MOL     -0.450946
    175 H84        -4.7870   -4.5670    0.2620 hc        1 MOL      0.046735
    176 H85        -3.0910   -4.3640    0.7220 hc        1 MOL      0.046735
    177 N15        -6.6090   -3.1870   -2.4460 n         1 MOL     -0.221519
    178 C54        -8.0520   -3.6590   -2.4110 c3        1 MOL     -0.264422
    179 H86        -8.5210   -3.4640   -3.3750 h1        1 MOL      0.110185
    180 H87        -8.0790   -4.7290   -2.2030 h1        1 MOL      0.110185
    181 H88        -8.5920   -3.1230   -1.6310 h1        1 MOL      0.110185
    182 H89        -6.0680   -3.4910   -3.2460 hn        1 MOL      0.329150
    183 Ca1         0.0190   -5.5040   -2.3580 Ca        1 MOL      1.664340
    184 O25         1.6630   -4.1060   -3.8130 oh        1 MOL     -0.840351
    185 H90         2.2430   -4.4400   -4.4910 ho        1 MOL      0.420548
    186 H91         2.2200   -3.5560   -3.2600 ho        1 MOL      0.420548
    187 O26         0.5180   -6.6140   -4.8080 oh        1 MOL     -0.840351
    188 H92        -0.3280   -7.0530   -4.8720 ho        1 MOL      0.420548
    189 H93         1.1500   -7.2600   -5.1370 ho        1 MOL      0.420548
    190 O27        -1.6490   -4.0620   -4.1250 oh        1 MOL     -0.840351
    191 H94        -1.3200   -4.1480   -5.0220 ho        1 MOL      0.420548
    192 H95        -1.4840   -3.1470   -3.9020 ho        1 MOL      0.420548
    193 O28         2.7390   -6.3660   -1.8980 oh        1 MOL     -0.840351
    194 H96         3.4570   -6.5490   -2.5100 ho        1 MOL      0.420548
    195 H97         3.1620   -5.9340   -1.1570 ho        1 MOL      0.420548
@<TRIPOS>BOND
     1    1    2 1   
     2    1    4 1   
     3    1    5 1   
     4    1    6 1   
     5    2    3 2   
     6    2    7 1   
     7    7    8 1   
     8    7   15 1   
     9    8    9 1   
    10    8   11 1   
    11    8   16 1   
    12    9   10 2   
    13    9   19 1   
    14   11   12 1   
    15   11   17 1   
    16   11   18 1   
    17   12   13 1   
    18   12   14 1   
    19   19   20 1   
    20   19   28 1   
    21   20   21 1   
    22   20   23 1   
    23   20   29 1   
    24   21   22 2   
    25   21   41 1   
    26   23   24 1   
    27   23   30 1   
    28   23   31 1   
    29   24   25 1   
    30   24   32 1   
    31   24   33 1   
    32   25   26 1   
    33   25   34 1   
    34   25   35 1   
    35   26   27 1   
    36   26   36 1   
    37   26   37 1   
    38   27   38 1   
    39   27   39 1   
    40   27   40 1   
    41   41   42 1   
    42   41   49 1   
    43   42   43 1   
    44   42   45 1   
    45   42   50 1   
    46   43   44 2   
    47   43   53 1   
    48   45   46 1   
    49   45   51 1   
    50   45   52 1   
    51   46   47 1   
    52   46   48 1   
    53   53   54 1   
    54   53   57 1   
    55   54   55 1   
    56   54   58 1   
    57   54   59 1   
    58   55   56 2   
    59   55   60 1   
    60   60   61 1   
    61   60   68 1   
    62   61   62 1   
    63   61   64 1   
    64   61   69 1   
    65   62   63 2   
    66   62   72 1   
    67   64   65 1   
    68   64   70 1   
    69   64   71 1   
    70   65   66 1   
    71   65   67 1   
    72   72   73 1   
    73   72   76 1   
    74   73   74 1   
    75   73   77 1   
    76   73   78 1   
    77   74   75 2   
    78   74   79 1   
    79   79   80 1   
    80   79   86 1   
    81   80   81 1   
    82   80   83 1   
    83   80   87 1   
    84   81   82 2   
    85   81   93 1   
    86   83   84 1   
    87   83   85 1   
    88   83   88 1   
    89   84   90 1   
    90   84   91 1   
    91   84   92 1   
    92   85   89 1   
    93   93   94 1   
    94   93  101 1   
    95   94   95 1   
    96   94   97 1   
    97   94  102 1   
    98   95   96 2   
    99   95  112 1   
   100   97   98 1   
   101   97   99 1   
   102   97  103 1   
   103   98  100 1   
   104   98  104 1   
   105   98  105 1   
   106   99  106 1   
   107   99  107 1   
   108   99  108 1   
   109  100  109 1   
   110  100  110 1   
   111  100  111 1   
   112  112  113 1   
   113  112  119 1   
   114  113  114 1   
   115  113  116 1   
   116  113  120 1   
   117  114  115 2   
   118  114  126 1   
   119  116  117 1   
   120  116  118 1   
   121  116  121 1   
   122  117  123 1   
   123  117  124 1   
   124  117  125 1   
   125  118  122 1   
   126  126  127 1   
   127  126  133 1   
   128  127  128 1   
   129  127  130 1   
   130  127  134 1   
   131  128  129 2   
   132  128  140 1   
   133  130  131 1   
   134  130  132 1   
   135  130  135 1   
   136  131  137 1   
   137  131  138 1   
   138  131  139 1   
   139  132  136 1   
   140  140  141 1   
   141  140  149 1   
   142  141  142 1   
   143  141  144 1   
   144  141  150 1   
   145  142  143 2   
   146  142  162 1   
   147  144  145 1   
   148  144  151 1   
   149  144  152 1   
   150  145  146 1   
   151  145  153 1   
   152  145  154 1   
   153  146  147 1   
   154  146  155 1   
   155  146  156 1   
   156  147  148 1   
   157  147  157 1   
   158  147  158 1   
   159  148  159 1   
   160  148  160 1   
   161  148  161 1   
   162  162  163 1   
   163  162  171 1   
   164  163  164 1   
   165  163  166 1   
   166  163  172 1   
   167  164  165 2   
   168  164  177 1   
   169  166  167 1   
   170  166  173 1   
   171  166  174 1   
   172  167  168 1   
   173  167  175 1   
   174  167  176 1   
   175  168  169 1   
   176  168  170 1   
   177  177  178 1   
   178  177  182 1   
   179  178  179 1   
   180  178  180 1   
   181  178  181 1   
   182  184  185 1   
   183  184  186 1   
   184  187  188 1   
   185  187  189 1   
   186  190  191 1   
   187  190  192 1   
   188  193  194 1   
   189  193  195 1   
@<TRIPOS>SUBSTRUCTURE
     1 MOL         1 TEMP              0 ****  ****    0 ROOT
