@<TRIPOS>MOLECULE
MOL
  182   178     1     0     0
SMALL
resp


@<TRIPOS>ATOM
      1 C1         -0.0660   -3.6790    5.9770 c3        1 MOL     -0.274309
      2 C2          0.1620   -3.6270    4.4830 c         1 MOL      0.653064
      3 O1         -0.7800   -3.8410    3.6740 o         1 MOL     -0.613087
      4 H1         -1.0920   -3.3840    6.1980 hc        1 MOL      0.076011
      5 H2          0.1040   -4.6940    6.3360 hc        1 MOL      0.076011
      6 H3          0.6230   -2.9960    6.4750 hc        1 MOL      0.076011
      7 N1          1.3890   -3.2990    4.0810 n         1 MOL     -0.467107
      8 C3          1.8460   -3.0220    2.7160 c3        1 MOL     -0.006407
      9 C4          2.1660   -4.3230    1.9980 c         1 MOL      0.467439
     10 O2          3.1100   -5.0340    2.3820 o         1 MOL     -0.518447
     11 C5          2.9410   -1.9550    2.7580 c3        1 MOL      0.033074
     12 C6          3.1430   -1.2900    1.3680 c         1 MOL      0.651330
     13 O3          3.6660   -0.1990    1.1770 o         1 MOL     -0.773891
     14 O4          2.6380   -1.8620    0.4050 o         1 MOL     -0.773891
     15 H4          2.1310   -3.3220    4.7640 hn        1 MOL      0.277031
     16 H5          0.9490   -2.5870    2.2720 h1        1 MOL      0.154686
     17 H6          3.9120   -2.2810    3.1270 hc        1 MOL      0.004836
     18 H7          2.6850   -1.2000    3.4980 hc        1 MOL      0.004836
     19 N2          1.3380   -4.6300    0.9980 n         1 MOL     -0.345658
     20 C7          1.6620   -5.6410   -0.0420 c3        1 MOL      0.077163
     21 C8          2.8010   -5.4200   -0.9550 c         1 MOL      0.486650
     22 O5          3.4500   -6.4240   -1.2380 o         1 MOL     -0.581093
     23 C9          0.3860   -5.9180   -0.8490 c3        1 MOL      0.104261
     24 C10         0.4260   -7.0450   -1.9120 c3        1 MOL     -0.048033
     25 C11        -0.9700   -7.5610   -2.3260 c3        1 MOL     -0.044852
     26 C12        -1.6660   -6.6270   -3.3400 c3        1 MOL      0.003611
     27 N3         -2.8910   -7.2110   -3.8050 n4        1 MOL     -0.157431
     28 H8          0.5060   -4.0690    0.9030 hn        1 MOL      0.211800
     29 H9          1.8740   -6.5930    0.4380 h1        1 MOL      0.076906
     30 H10         0.1240   -4.9680   -1.3100 hc        1 MOL     -0.022136
     31 H11        -0.3690   -6.0910   -0.0810 hc        1 MOL     -0.022136
     32 H12         1.0600   -7.8130   -1.4800 hc        1 MOL      0.038954
     33 H13         0.9000   -6.6470   -2.8050 hc        1 MOL      0.038954
     34 H14        -1.6400   -7.6480   -1.4770 hc        1 MOL      0.039475
     35 H15        -0.8520   -8.5950   -2.6330 hc        1 MOL      0.039475
     36 H16        -0.9350   -6.4530   -4.1320 hx        1 MOL      0.068052
     37 H17        -1.7520   -5.6780   -2.8150 hx        1 MOL      0.068052
     38 H18        -2.6340   -8.0360   -4.3450 hn        1 MOL      0.240970
     39 H19        -3.5270   -7.5380   -3.0950 hn        1 MOL      0.240970
     40 H20        -3.4210   -6.6690   -4.4660 hn        1 MOL      0.240970
     41 N4          3.0910   -4.2240   -1.4370 n         1 MOL     -0.328713
     42 C13         4.0980   -3.8270   -2.4250 c3        1 MOL      0.124179
     43 C14         5.3000   -3.1640   -1.7200 c         1 MOL      0.419699
     44 O6          6.3170   -2.7900   -2.3720 o         1 MOL     -0.612908
     45 C15         3.4550   -2.9060   -3.4330 c3        1 MOL     -0.476351
     46 C16         2.8310   -1.6990   -2.7500 c         1 MOL      0.946899
     47 O7          1.6230   -1.4840   -2.5410 o         1 MOL     -0.834682
     48 O8          3.5900   -0.8180   -2.3320 o         1 MOL     -0.834682
     49 H21         2.3640   -3.5670   -1.1700 hn        1 MOL      0.225993
     50 H22         4.5470   -4.6170   -3.0270 h1        1 MOL      0.107828
     51 H23         2.6900   -3.4990   -3.9400 hc        1 MOL      0.125747
     52 H24         4.1840   -2.6570   -4.2000 hc        1 MOL      0.125747
     53 N5          5.1980   -2.8980   -0.4070 n         1 MOL     -0.153064
     54 C17         6.2900   -2.5140    0.5520 c3        1 MOL     -0.241899
     55 C18         6.7600   -1.0300    0.3840 c         1 MOL      0.501112
     56 O9          7.7120   -0.6170    1.0640 o         1 MOL     -0.578906
     57 H25         4.2340   -3.0400   -0.1250 hn        1 MOL      0.177765
     58 H26         7.1450   -3.1640    0.3970 h1        1 MOL      0.130673
     59 H27         5.9250   -2.6470    1.5760 h1        1 MOL      0.130673
     60 N6          6.2010   -0.3260   -0.5010 n         1 MOL     -0.117120
     61 C19         6.7020    0.9400   -1.0500 c3        1 MOL     -0.001036
     62 C20         5.5000    1.9730   -1.0930 c         1 MOL      0.348550
     63 O10         4.2670    1.6580   -0.9550 o         1 MOL     -0.359183
     64 C21         7.3820    0.6640   -2.4560 c3        1 MOL     -0.221097
     65 C22         8.7370    0.0730   -2.2670 c         1 MOL      0.650004
     66 N7          8.9070   -1.1860   -2.4450 n         1 MOL     -0.785762
     67 O11         9.6330    0.7510   -1.8470 o         1 MOL     -0.577212
     68 H28         5.4900   -0.8300   -1.0240 hn        1 MOL      0.367653
     69 H29         7.4930    1.4380   -0.4960 h1        1 MOL      0.083090
     70 H30         7.4290    1.6380   -2.9520 hc        1 MOL      0.058130
     71 H31         6.7030    0.1060   -3.1040 hc        1 MOL      0.058130
     72 H32         8.0810   -1.7410   -2.5910 hn        1 MOL      0.377454
     73 H33         9.8340   -1.5720   -2.3180 hn        1 MOL      0.377454
     74 N8          5.8400    3.2780   -1.3900 n         1 MOL     -0.276077
     75 C23         4.9830    4.4880   -1.4180 c3        1 MOL     -0.285479
     76 C24         4.0130    4.7160   -0.2940 c         1 MOL      0.675028
     77 O12         4.4180    4.4850    0.8590 o         1 MOL     -0.495349
     78 H34         6.8170    3.5340   -1.4850 hn        1 MOL      0.291951
     79 H35         4.3510    4.3110   -2.2950 h1        1 MOL      0.117064
     80 H36         5.5790    5.3800   -1.5840 h1        1 MOL      0.117064
     81 N9          2.7630    5.0070   -0.6460 n         1 MOL     -0.597138
     82 C25         1.6690    5.0370    0.3880 c3        1 MOL     -0.004997
     83 C26         1.4940    3.7330    1.1670 c         1 MOL      0.548254
     84 O13         1.9800    2.6960    0.6560 o         1 MOL     -0.503700
     85 C27         0.3270    5.3410   -0.2750 c3        1 MOL     -0.260133
     86 C28         0.3510    6.6450   -1.0540 ca        1 MOL      0.129164
     87 C29        -0.0990    6.7010   -2.4150 ca        1 MOL     -0.169611
     88 C30         0.6220    7.8460   -0.3570 ca        1 MOL     -0.169611
     89 C31        -0.2340    7.8890   -3.1070 ca        1 MOL     -0.271383
     90 C32         0.3780    9.0990   -1.0210 ca        1 MOL     -0.271383
     91 C33        -0.0470    9.0890   -2.3740 ca        1 MOL      0.346013
     92 O14        -0.1360   10.2840   -3.0310 oh        1 MOL     -0.477719
     93 H37         2.4930    4.8710   -1.6110 hn        1 MOL      0.328872
     94 H38         1.8770    5.8470    1.0920 h1        1 MOL      0.121466
     95 H39        -0.3590    5.3820    0.5640 hc        1 MOL      0.083669
     96 H40        -0.0410    4.5760   -0.9650 hc        1 MOL      0.083669
     97 H41        -0.3020    5.7940   -2.9710 ha        1 MOL      0.141324
     98 H42         1.0760    7.8670    0.6250 ha        1 MOL      0.141324
     99 H43        -0.5190    7.9430   -4.1440 ha        1 MOL      0.168455
    100 H44         0.4590   10.0400   -0.4870 ha        1 MOL      0.168455
    101 H45         0.2300   11.0160   -2.5190 ho        1 MOL      0.362823
    102 N10         0.7750    3.7190    2.3000 n         1 MOL     -0.660757
    103 C34         0.6580    2.5300    3.1890 c3        1 MOL      0.366718
    104 C35         0.0740    1.2440    2.6770 c         1 MOL     -0.020747
    105 O15         0.7200    0.5310    1.9100 o         1 MOL     -0.307615
    106 C36         1.8940    2.3360    4.0450 c3        1 MOL      0.188758
    107 C37         1.4890    1.5720    5.3510 c3        1 MOL     -0.291628
    108 C38         2.6050    3.6090    4.4770 c3        1 MOL     -0.205887
    109 C39         0.7310    2.1540    6.5040 c3        1 MOL     -0.252901
    110 H46         0.3930    4.6200    2.5740 hn        1 MOL      0.341825
    111 H47        -0.0020    2.9540    3.9450 h1        1 MOL      0.003418
    112 H48         2.5980    1.7500    3.4650 hc        1 MOL      0.031182
    113 H49         2.4610    1.2730    5.7640 hc        1 MOL      0.094343
    114 H50         1.0150    0.6240    5.1000 hc        1 MOL      0.094343
    115 H51         3.3000    3.3920    5.2920 hc        1 MOL      0.061142
    116 H52         3.1070    3.9940    3.5890 hc        1 MOL      0.061142
    117 H53         1.9610    4.4020    4.8520 hc        1 MOL      0.061142
    118 H54         0.6180    1.4730    7.3530 hc        1 MOL      0.078477
    119 H55         1.3120    3.0240    6.8300 hc        1 MOL      0.078477
    120 H56        -0.2500    2.4190    6.1240 hc        1 MOL      0.078477
    121 N11        -1.0590    0.8340    3.2380 n         1 MOL     -0.056284
    122 C40        -1.6150   -0.5550    3.0240 c3        1 MOL      0.104765
    123 C41        -2.6640   -0.5440    1.9220 c         1 MOL      0.648401
    124 O16        -3.0560   -1.6470    1.4800 o         1 MOL     -0.566083
    125 C42        -2.2800   -0.9550    4.3380 c3        1 MOL      0.010813
    126 O17        -3.1350    0.0560    4.8530 oh        1 MOL     -0.612895
    127 H57        -1.6390    1.4350    3.7910 hn        1 MOL      0.173614
    128 H58        -0.8440   -1.2790    2.7990 h1        1 MOL     -0.040021
    129 H59        -1.5430   -1.2780    5.0730 h1        1 MOL      0.086244
    130 H60        -2.9750   -1.7290    3.9880 h1        1 MOL      0.086244
    131 H61        -3.2010   -0.0660    5.8050 ho        1 MOL      0.417250
    132 N12        -3.1930    0.6190    1.3900 n         1 MOL     -0.531316
    133 C43        -4.2880    0.5350    0.3290 c3        1 MOL      0.057174
    134 C44        -3.7560   -0.1610   -0.8840 c         1 MOL      0.736096
    135 O18        -2.5900   -0.0290   -1.2640 o         1 MOL     -0.656888
    136 C45        -4.9070    1.9010   -0.0210 c3        1 MOL     -0.061881
    137 H62        -2.8690    1.5670    1.5520 hn        1 MOL      0.250159
    138 H63        -5.0300   -0.1200    0.7800 h1        1 MOL      0.129852
    139 H64        -4.3450    2.4730   -0.7610 hc        1 MOL      0.032458
    140 H65        -5.8720    1.8890   -0.5230 hc        1 MOL      0.032458
    141 H66        -5.0370    2.4940    0.8810 hc        1 MOL      0.032458
    142 N13        -4.6230   -0.8380   -1.5950 n         1 MOL     -0.725809
    143 C46        -6.0620   -1.1570   -1.4960 c3        1 MOL      0.568381
    144 C47        -6.9200   -0.1450   -2.3990 c         1 MOL      0.469223
    145 O19        -6.5320    0.3090   -3.4440 o         1 MOL     -0.545363
    146 C48        -6.2550   -2.6040   -1.7990 c3        1 MOL     -0.626678
    147 H67        -4.2310   -1.3500   -2.3790 hn        1 MOL      0.338074
    148 H68        -6.3910   -1.0190   -0.4710 h1        1 MOL     -0.072409
    149 H69        -7.3330   -2.7820   -1.8100 hc        1 MOL      0.174281
    150 H70        -5.7790   -2.8940   -2.7320 hc        1 MOL      0.174281
    151 H71        -5.8310   -3.1360   -0.9450 hc        1 MOL      0.174281
    152 N14        -8.2120   -0.0010   -2.2150 n         1 MOL     -0.492407
    153 C49        -8.9770   -0.3410   -1.0280 c3        1 MOL     -0.201569
    154 C50        -8.6800    0.7190    0.0930 c         1 MOL      0.548246
    155 O20        -8.2170    0.3830    1.1850 o         1 MOL     -0.534461
    156 C51       -10.4770   -0.3670   -1.3990 c3        1 MOL      0.277375
    157 C52       -11.3760   -0.8280   -0.2800 c3        1 MOL     -0.244793
    158 C53       -12.8030   -0.7670   -0.7240 c         1 MOL      0.675723
    159 O21       -13.2650   -1.8800   -1.0990 o         1 MOL     -0.662943
    160 O22       -13.4130    0.3490   -0.7610 o         1 MOL     -0.662943
    161 H72        -8.6560    0.6370   -2.8750 hn        1 MOL      0.322820
    162 H73        -8.7860   -1.3320   -0.6110 h1        1 MOL      0.124973
    163 H74       -10.7270   -1.0340   -2.2310 hc        1 MOL     -0.039803
    164 H75       -10.7080    0.6590   -1.6930 hc        1 MOL     -0.039803
    165 H76       -11.2940   -0.1210    0.5500 hc        1 MOL      0.041996
    166 H77       -10.9740   -1.7980    0.0290 hc        1 MOL      0.041996
    167 N15        -9.0270    2.0080   -0.1410 n         1 MOL     -0.302571
    168 C54        -9.0420    3.0990    0.8480 c3        1 MOL     -0.387801
    169 H78        -9.0150    4.0580    0.3310 h1        1 MOL      0.158313
    170 H79        -9.9500    3.0350    1.4470 h1        1 MOL      0.158313
    171 H80        -8.1710    3.0130    1.4980 h1        1 MOL      0.158313
    172 H81        -9.3600    2.2670   -1.0660 hn        1 MOL      0.277077
    173 Ca1         1.8420    0.5410   -0.7860 Ca        1 MOL      1.735099
    174 O23        -0.5350    1.8260   -1.1270 oh        1 MOL     -0.806523
    175 H82        -1.0540    1.2360   -0.5660 ho        1 MOL      0.401556
    176 H83        -1.1760    2.3880   -1.5530 ho        1 MOL      0.401556
    177 O24        -0.3730   -0.9870   -0.3340 oh        1 MOL     -0.806523
    178 H84        -1.2490   -0.6760   -0.5730 ho        1 MOL      0.401556
    179 H85        -0.5240   -1.8570    0.0400 ho        1 MOL      0.401556
    180 O25         1.7320    2.1710   -3.1060 oh        1 MOL     -0.806523
    181 H86         1.5070    3.0950   -3.2170 ho        1 MOL      0.401556
    182 H87         1.0480    1.7060   -3.5960 ho        1 MOL      0.401556
@<TRIPOS>BOND
     1    1    2 1   
     2    1    4 1   
     3    1    5 1   
     4    1    6 1   
     5    2    3 2   
     6    2    7 1   
     7    7    8 1   
     8    7   15 1   
     9    8    9 1   
    10    8   11 1   
    11    8   16 1   
    12    9   10 2   
    13    9   19 1   
    14   11   12 1   
    15   11   17 1   
    16   11   18 1   
    17   12   13 1   
    18   12   14 1   
    19   19   20 1   
    20   19   28 1   
    21   20   21 1   
    22   20   23 1   
    23   20   29 1   
    24   21   22 2   
    25   21   41 1   
    26   23   24 1   
    27   23   30 1   
    28   23   31 1   
    29   24   25 1   
    30   24   32 1   
    31   24   33 1   
    32   25   26 1   
    33   25   34 1   
    34   25   35 1   
    35   26   27 1   
    36   26   36 1   
    37   26   37 1   
    38   27   38 1   
    39   27   39 1   
    40   27   40 1   
    41   41   42 1   
    42   41   49 1   
    43   42   43 1   
    44   42   45 1   
    45   42   50 1   
    46   43   44 2   
    47   43   53 1   
    48   45   46 1   
    49   45   51 1   
    50   45   52 1   
    51   46   47 1   
    52   46   48 1   
    53   53   54 1   
    54   53   57 1   
    55   54   55 1   
    56   54   58 1   
    57   54   59 1   
    58   55   56 2   
    59   55   60 1   
    60   60   61 1   
    61   60   68 1   
    62   61   62 1   
    63   61   64 1   
    64   61   69 1   
    65   62   63 2   
    66   62   74 1   
    67   64   65 1   
    68   64   70 1   
    69   64   71 1   
    70   65   66 1   
    71   65   67 2   
    72   66   72 1   
    73   66   73 1   
    74   74   75 1   
    75   74   78 1   
    76   75   76 1   
    77   75   79 1   
    78   75   80 1   
    79   76   77 2   
    80   76   81 1   
    81   81   82 1   
    82   81   93 1   
    83   82   83 1   
    84   82   85 1   
    85   82   94 1   
    86   83   84 2   
    87   83  102 1   
    88   85   86 1   
    89   85   95 1   
    90   85   96 1   
    91   86   87 ar  
    92   86   88 ar  
    93   87   89 ar  
    94   87   97 1   
    95   88   90 ar  
    96   88   98 1   
    97   89   91 ar  
    98   89   99 1   
    99   90   91 ar  
   100   90  100 1   
   101   91   92 1   
   102   92  101 1   
   103  102  103 1   
   104  102  110 1   
   105  103  104 1   
   106  103  106 1   
   107  103  111 1   
   108  104  105 2   
   109  104  121 1   
   110  106  107 1   
   111  106  108 1   
   112  106  112 1   
   113  107  109 1   
   114  107  113 1   
   115  107  114 1   
   116  108  115 1   
   117  108  116 1   
   118  108  117 1   
   119  109  118 1   
   120  109  119 1   
   121  109  120 1   
   122  121  122 1   
   123  121  127 1   
   124  122  123 1   
   125  122  125 1   
   126  122  128 1   
   127  123  124 2   
   128  123  132 1   
   129  125  126 1   
   130  125  129 1   
   131  125  130 1   
   132  126  131 1   
   133  132  133 1   
   134  132  137 1   
   135  133  134 1   
   136  133  136 1   
   137  133  138 1   
   138  134  135 2   
   139  134  142 1   
   140  136  139 1   
   141  136  140 1   
   142  136  141 1   
   143  142  143 1   
   144  142  147 1   
   145  143  144 1   
   146  143  146 1   
   147  143  148 1   
   148  144  145 2   
   149  144  152 1   
   150  146  149 1   
   151  146  150 1   
   152  146  151 1   
   153  152  153 1   
   154  152  161 1   
   155  153  154 1   
   156  153  156 1   
   157  153  162 1   
   158  154  155 2   
   159  154  167 1   
   160  156  157 1   
   161  156  163 1   
   162  156  164 1   
   163  157  158 1   
   164  157  165 1   
   165  157  166 1   
   166  158  159 1   
   167  158  160 1   
   168  167  168 1   
   169  167  172 1   
   170  168  169 1   
   171  168  170 1   
   172  168  171 1   
   173  174  175 1   
   174  174  176 1   
   175  177  178 1   
   176  177  179 1   
   177  180  181 1   
   178  180  182 1   
@<TRIPOS>SUBSTRUCTURE
     1 MOL         1 TEMP              0 ****  ****    0 ROOT
