@<TRIPOS>MOLECULE
MOL
  195   189     1     0     0
SMALL
resp


@<TRIPOS>ATOM
      1 C1          4.4270   -4.1510   -2.9940 c3        1 MOL     -0.124370
      2 C2          3.5290   -3.7500   -1.8960 c         1 MOL      0.728149
      3 O1          3.0520   -2.6270   -1.8630 o         1 MOL     -0.478209
      4 H1          5.4510   -3.8730   -2.7460 hc        1 MOL      0.001686
      5 H2          4.3690   -5.2310   -3.1370 hc        1 MOL      0.001686
      6 H3          4.1270   -3.6460   -3.9120 hc        1 MOL      0.001686
      7 N1          3.4860   -4.5580   -0.8300 n         1 MOL     -0.587230
      8 C3          2.7890   -4.2800    0.4690 c3        1 MOL     -0.040742
      9 C4          1.2670   -4.1820    0.3020 c         1 MOL      0.700061
     10 O2          0.4810   -3.7760    1.2130 o         1 MOL     -0.560807
     11 C5          3.5270   -3.1010    1.2060 c3        1 MOL     -0.453857
     12 C6          5.0420   -3.1370    1.0830 c         1 MOL      0.721690
     13 O3          5.6790   -4.1930    1.1910 o         1 MOL     -0.667080
     14 O4          5.6000   -2.1090    0.6240 o         1 MOL     -0.667080
     15 H4          4.0720   -5.3710   -0.8530 hn        1 MOL      0.296598
     16 H5          2.8870   -5.1240    1.1540 h1        1 MOL      0.136345
     17 H6          3.1910   -3.0740    2.2520 hc        1 MOL      0.152681
     18 H7          3.1450   -2.1680    0.7990 hc        1 MOL      0.152681
     19 N2          0.7450   -4.7070   -0.8300 n         1 MOL     -0.515624
     20 C7         -0.6720   -4.7190   -1.0780 c3        1 MOL     -0.047819
     21 C8         -1.4060   -5.7720   -0.2180 c         1 MOL      0.441816
     22 O5         -0.7960   -6.7320    0.2150 o         1 MOL     -0.540787
     23 C9         -0.9530   -4.9880   -2.5690 c3        1 MOL      0.047862
     24 C10        -0.6290   -6.3630   -3.1780 c3        1 MOL      0.303772
     25 C11        -0.3700   -3.9290   -3.4480 c3        1 MOL     -0.218802
     26 C12        -1.3200   -6.7350   -4.4800 c3        1 MOL     -0.399195
     27 H8          1.3980   -5.0860   -1.5040 hn        1 MOL      0.248506
     28 H9         -1.1570   -3.7750   -0.8290 h1        1 MOL      0.138594
     29 H10        -2.0390   -4.9910   -2.6650 hc        1 MOL      0.044284
     30 H11        -0.8540   -7.1570   -2.4540 hc        1 MOL     -0.051832
     31 H12         0.4450   -6.3910   -3.3570 hc        1 MOL     -0.051832
     32 H13        -0.7930   -2.9940   -3.0790 hc        1 MOL      0.050244
     33 H14         0.7080   -3.8050   -3.3720 hc        1 MOL      0.050244
     34 H15        -0.6420   -4.0540   -4.4920 hc        1 MOL      0.050244
     35 H16        -2.3860   -6.8840   -4.3390 hc        1 MOL      0.084911
     36 H17        -1.1150   -5.9560   -5.2230 hc        1 MOL      0.084911
     37 H18        -0.9930   -7.7300   -4.7780 hc        1 MOL      0.084911
     38 N3         -2.7050   -5.6430    0.1720 n         1 MOL     -0.447979
     39 C13        -3.6770   -4.5850   -0.1180 c3        1 MOL      0.253999
     40 C14        -3.7320   -3.4680    0.8550 c         1 MOL      0.439035
     41 O6         -4.0360   -2.3500    0.5370 o         1 MOL     -0.533431
     42 C15        -5.0310   -5.1750   -0.3900 c3        1 MOL     -0.311013
     43 C16        -5.5670   -6.3160    0.5380 c         1 MOL      0.737070
     44 O7         -6.6840   -6.8190    0.2590 o         1 MOL     -0.712765
     45 O8         -4.9920   -6.5620    1.5740 o         1 MOL     -0.712765
     46 H19        -3.0330   -6.3450    0.8210 hn        1 MOL      0.281519
     47 H20        -3.3860   -4.0580   -1.0260 h1        1 MOL     -0.029102
     48 H21        -5.0940   -5.5410   -1.4100 hc        1 MOL      0.046834
     49 H22        -5.8020   -4.3970   -0.3350 hc        1 MOL      0.046834
     50 N4         -3.3460   -3.7510    2.0990 n         1 MOL     -0.235691
     51 C17        -3.4700   -2.7840    3.2000 c3        1 MOL     -0.373083
     52 C18        -4.9680   -2.4570    3.5540 c         1 MOL      0.781466
     53 O9         -5.6510   -3.3020    4.0620 o         1 MOL     -0.580063
     54 H23        -3.3370   -4.6910    2.4410 hn        1 MOL      0.286003
     55 H24        -2.9490   -1.8990    2.8540 h1        1 MOL      0.139114
     56 H25        -3.2160   -3.1430    4.1970 h1        1 MOL      0.139114
     57 N5         -5.1940   -1.1680    3.3940 n         1 MOL     -0.667278
     58 C19        -6.5640   -0.4830    3.5960 c3        1 MOL      0.171709
     59 C20        -7.5150   -0.5760    2.4120 c         1 MOL      0.234405
     60 O10        -8.6960   -0.2380    2.5090 o         1 MOL     -0.523232
     61 C21        -6.3200    1.0060    3.8650 c3        1 MOL     -0.227315
     62 C22        -5.0400    1.5120    3.2250 c         1 MOL      0.672329
     63 O11        -5.0100    1.4140    2.0000 o         1 MOL     -0.675365
     64 O12        -4.1350    2.1730    3.8400 o         1 MOL     -0.675365
     65 H26        -4.4470   -0.7090    2.8910 hn        1 MOL      0.349346
     66 H27        -7.0790   -0.8860    4.4760 h1        1 MOL      0.089329
     67 H28        -6.3460    1.2120    4.9350 hc        1 MOL      0.041117
     68 H29        -7.1330    1.6000    3.4540 hc        1 MOL      0.041117
     69 N6         -6.9820   -1.0980    1.2960 n         1 MOL     -0.008719
     70 C23        -7.6000   -1.0170   -0.0510 c3        1 MOL     -0.282251
     71 C24        -7.6600    0.3800   -0.6100 c         1 MOL      0.610914
     72 O13        -8.2780    0.6090   -1.6650 o         1 MOL     -0.645578
     73 H30        -6.1200   -1.6110    1.4280 hn        1 MOL      0.165898
     74 H31        -8.6000   -1.4430   -0.0120 h1        1 MOL      0.117489
     75 H32        -6.9200   -1.5780   -0.7040 h1        1 MOL      0.117489
     76 N7         -7.0570    1.4190    0.0410 n         1 MOL      0.051979
     77 C25        -7.0580    2.8620   -0.2140 c3        1 MOL      0.050038
     78 C26        -6.2610    3.2470   -1.5270 c         1 MOL      0.251500
     79 O14        -6.1400    4.5000   -1.8090 o         1 MOL     -0.512334
     80 C27        -8.4090    3.5260   -0.0950 c3        1 MOL     -0.058964
     81 C28        -9.2830    3.0160    1.0780 c3        1 MOL     -0.203077
     82 C29       -10.5800    3.8440    1.3420 c         1 MOL      0.645374
     83 N8        -11.6180    3.1890    1.8410 n         1 MOL     -0.786616
     84 O15       -10.7740    5.0510    1.0200 o         1 MOL     -0.571985
     85 H33        -6.3400    1.1010    0.6690 hn        1 MOL      0.009926
     86 H34        -6.4840    3.3620    0.5690 h1        1 MOL      0.133932
     87 H35        -8.9730    3.2000   -0.9620 hc        1 MOL      0.040469
     88 H36        -8.2540    4.6070   -0.0600 hc        1 MOL      0.040469
     89 H37        -8.8050    2.9750    2.0570 hc        1 MOL      0.069458
     90 H38        -9.4560    1.9590    0.9280 hc        1 MOL      0.069458
     91 H39       -11.5450    2.1930    1.9500 hn        1 MOL      0.346756
     92 H40       -12.5670    3.5420    1.8310 hn        1 MOL      0.346756
     93 N9         -5.7090    2.3260   -2.2370 n         1 MOL     -0.072295
     94 C30        -5.1160    2.4650   -3.5770 c3        1 MOL     -0.245231
     95 C31        -3.5710    2.2270   -3.6890 c         1 MOL      0.730322
     96 O16        -2.9920    2.6360   -4.6430 o         1 MOL     -0.590596
     97 C32        -5.7420    1.4560   -4.6210 c3        1 MOL      0.404481
     98 C33        -5.4820    0.0220   -4.1580 c3        1 MOL     -0.379775
     99 C34        -7.2370    1.8210   -4.7690 c3        1 MOL     -0.379775
    100 H41        -5.6040    1.4470   -1.7540 hn        1 MOL      0.167895
    101 H42        -5.2640    3.4940   -3.9000 h1        1 MOL      0.107725
    102 H43        -5.1640    1.6270   -5.5330 hc        1 MOL     -0.066354
    103 H44        -5.9230   -0.1470   -3.1770 hc        1 MOL      0.081291
    104 H45        -5.9140   -0.6580   -4.8880 hc        1 MOL      0.081291
    105 H46        -4.4160   -0.1590   -4.0620 hc        1 MOL      0.081291
    106 H47        -7.8830    1.6040   -3.9200 hc        1 MOL      0.081291
    107 H48        -7.3240    2.8970   -4.9120 hc        1 MOL      0.081291
    108 H49        -7.5870    1.3250   -5.6710 hc        1 MOL      0.081291
    109 N10        -2.9280    1.8020   -2.6170 n         1 MOL     -0.547722
    110 C35        -1.5330    1.6000   -2.3930 c3        1 MOL      0.100296
    111 C36        -1.1170    1.9610   -1.0440 c         1 MOL      0.681337
    112 O17        -1.9250    2.3200   -0.1870 o         1 MOL     -0.521018
    113 C37        -1.2690    0.1070   -2.7440 c3        1 MOL     -0.106699
    114 C38         0.2200   -0.1110   -3.0360 c         1 MOL      0.525186
    115 N11         0.9540   -0.5180   -2.0610 n         1 MOL     -0.481244
    116 O18         0.8130    0.1290   -4.1020 o         1 MOL     -0.581948
    117 H50        -3.4850    1.4630   -1.8470 hn        1 MOL      0.250856
    118 H51        -1.0170    2.1530   -3.1770 h1        1 MOL      0.088831
    119 H52        -1.7250   -0.2010   -3.6920 hc        1 MOL      0.040982
    120 H53        -1.5640   -0.4990   -1.8910 hc        1 MOL      0.040982
    121 H54         0.6370   -0.7690   -1.1380 hn        1 MOL      0.239073
    122 H55         1.7810   -0.9920   -2.3960 hn        1 MOL      0.239073
    123 N12         0.1990    2.0440   -0.9530 n         1 MOL     -0.628319
    124 C39         0.9770    2.6440    0.1310 c3        1 MOL      0.063359
    125 C40         2.2940    3.2810   -0.4660 c         1 MOL      0.800218
    126 O19         2.7680    2.9410   -1.5590 o         1 MOL     -0.609423
    127 C41         1.4900    1.5260    1.1360 c3        1 MOL     -0.022518
    128 C42         1.8640    2.1390    2.4400 ca        1 MOL     -0.166549
    129 C43         3.1880    2.4440    2.7990 ca        1 MOL     -0.066242
    130 C44         0.8740    2.5220    3.3520 ca        1 MOL     -0.066242
    131 C45         3.5420    3.0670    3.9840 ca        1 MOL     -0.267675
    132 C46         1.2070    3.1440    4.5730 ca        1 MOL     -0.267675
    133 C47         2.5120    3.4160    4.8810 ca        1 MOL      0.316038
    134 O20         2.7780    4.0870    6.0020 oh        1 MOL     -0.491861
    135 H56         0.6960    1.9600   -1.8220 hn        1 MOL      0.294214
    136 H57         0.4340    3.3970    0.7060 h1        1 MOL      0.096974
    137 H58         2.3100    0.9630    0.6830 hc        1 MOL      0.073443
    138 H59         0.7190    0.8140    1.4290 hc        1 MOL      0.073443
    139 H60         3.9830    1.9720    2.2380 ha        1 MOL      0.146076
    140 H61        -0.1510    2.2040    3.2280 ha        1 MOL      0.146076
    141 H62         4.5820    3.1850    4.2640 ha        1 MOL      0.151280
    142 H63         0.4230    3.3490    5.2920 ha        1 MOL      0.151280
    143 H64         3.7210    4.0830    6.1920 ho        1 MOL      0.360116
    144 N13         2.8960    4.1850    0.3040 n         1 MOL     -1.017143
    145 C48         4.0140    4.9820   -0.1610 c3        1 MOL      0.286227
    146 C49         5.1480    5.0050    0.8990 c         1 MOL      0.706271
    147 O21         5.1980    5.8530    1.7260 o         1 MOL     -0.567732
    148 C50         3.6140    6.4480   -0.5400 c3        1 MOL      0.238626
    149 C51         4.6850    7.1520   -1.2600 c3        1 MOL     -0.266312
    150 C52         4.3050    8.6020   -1.6200 c         1 MOL      0.703502
    151 O22         4.7710    9.2380   -2.6000 o         1 MOL     -0.667644
    152 O23         3.4780    9.1380   -0.8420 o         1 MOL     -0.667644
    153 H65         2.4540    4.5790    1.1170 hn        1 MOL      0.462205
    154 H66         4.4310    4.5760   -1.0880 h1        1 MOL      0.058695
    155 H67         3.3550    6.9920    0.3730 hc        1 MOL     -0.045985
    156 H68         2.7390    6.4450   -1.1910 hc        1 MOL     -0.045985
    157 H69         4.9050    6.5030   -2.1060 hc        1 MOL      0.038020
    158 H70         5.6120    7.2610   -0.6830 hc        1 MOL      0.038020
    159 N14         6.1040    4.0520    0.9830 n         1 MOL     -0.696225
    160 C53         6.2820    2.9450    0.0390 c3        1 MOL     -0.083986
    161 C54         6.5890    3.3270   -1.4160 c         1 MOL      0.497957
    162 O24         7.3770    4.2680   -1.5650 o         1 MOL     -0.545223
    163 C55         7.4290    2.1000    0.5450 c3        1 MOL      0.119236
    164 C56         7.0570    1.3000    1.8330 c3        1 MOL     -0.102528
    165 C57         8.0640    0.2320    2.1850 c         1 MOL      0.517256
    166 O25         8.7940    0.1940    3.1760 o         1 MOL     -0.626439
    167 O26         8.3530   -0.5650    1.2510 o         1 MOL     -0.626439
    168 H71         6.8140    4.0790    1.7040 hn        1 MOL      0.376256
    169 H72         5.4100    2.2960    0.0600 h1        1 MOL      0.071637
    170 H73         8.2820    2.7180    0.8420 hc        1 MOL     -0.023258
    171 H74         7.7090    1.4110   -0.2540 hc        1 MOL     -0.023258
    172 H75         6.1190    0.7580    1.6910 hc        1 MOL      0.006559
    173 H76         6.8510    2.0380    2.6080 hc        1 MOL      0.006559
    174 N15         6.0530    2.5970   -2.4130 n         1 MOL     -0.068653
    175 C58         6.3390    2.8170   -3.7720 c3        1 MOL     -0.697638
    176 H77         7.4000    3.0360   -3.8890 h1        1 MOL      0.210107
    177 H78         6.0860    1.9260   -4.3460 h1        1 MOL      0.210107
    178 H79         5.7520    3.6620   -4.1340 h1        1 MOL      0.210107
    179 H80         5.3400    1.9330   -2.1590 hn        1 MOL      0.239771
    180 Ca1         7.9780   -2.8630    0.2130 Ca        1 MOL      1.581192
    181 O27         7.2340   -1.5380   -1.9140 oh        1 MOL     -0.756406
    182 H81         6.4560   -1.2890   -2.4110 ho        1 MOL      0.359510
    183 H82         7.9610   -1.3350   -2.4960 ho        1 MOL      0.359510
    184 O28         7.5940   -4.2760    2.9580 oh        1 MOL     -0.756406
    185 H83         7.6490   -5.1020    3.4420 ho        1 MOL      0.359510
    186 H84         6.7270   -4.2770    2.5600 ho        1 MOL      0.359510
    187 O29        10.2170   -2.8890    1.7660 oh        1 MOL     -0.756406
    188 H85        10.6010   -2.1040    1.3750 ho        1 MOL      0.359510
    189 H86        10.7000   -3.0290    2.5800 ho        1 MOL      0.359510
    190 O30        10.1550   -2.8970   -1.2250 oh        1 MOL     -0.756406
    191 H87        10.8810   -3.5260   -1.2070 ho        1 MOL      0.359510
    192 H88        10.1830   -2.5280   -2.1020 ho        1 MOL      0.359510
    193 O31         8.8690   -5.4330    0.3730 oh        1 MOL     -0.756406
    194 H89         8.3110   -6.1970    0.4950 ho        1 MOL      0.359510
    195 H90         9.6840   -5.7860   -0.0050 ho        1 MOL      0.359510
@<TRIPOS>BOND
     1    1    2 1   
     2    1    4 1   
     3    1    5 1   
     4    1    6 1   
     5    2    3 2   
     6    2    7 1   
     7    7    8 1   
     8    7   15 1   
     9    8    9 1   
    10    8   11 1   
    11    8   16 1   
    12    9   10 2   
    13    9   19 1   
    14   11   12 1   
    15   11   17 1   
    16   11   18 1   
    17   12   13 1   
    18   12   14 1   
    19   19   20 1   
    20   19   27 1   
    21   20   21 1   
    22   20   23 1   
    23   20   28 1   
    24   21   22 2   
    25   21   38 1   
    26   23   24 1   
    27   23   25 1   
    28   23   29 1   
    29   24   26 1   
    30   24   30 1   
    31   24   31 1   
    32   25   32 1   
    33   25   33 1   
    34   25   34 1   
    35   26   35 1   
    36   26   36 1   
    37   26   37 1   
    38   38   39 1   
    39   38   46 1   
    40   39   40 1   
    41   39   42 1   
    42   39   47 1   
    43   40   41 2   
    44   40   50 1   
    45   42   43 1   
    46   42   48 1   
    47   42   49 1   
    48   43   44 1   
    49   43   45 1   
    50   50   51 1   
    51   50   54 1   
    52   51   52 1   
    53   51   55 1   
    54   51   56 1   
    55   52   53 2   
    56   52   57 1   
    57   57   58 1   
    58   57   65 1   
    59   58   59 1   
    60   58   61 1   
    61   58   66 1   
    62   59   60 2   
    63   59   69 1   
    64   61   62 1   
    65   61   67 1   
    66   61   68 1   
    67   62   63 1   
    68   62   64 1   
    69   69   70 1   
    70   69   73 1   
    71   70   71 1   
    72   70   74 1   
    73   70   75 1   
    74   71   72 2   
    75   71   76 1   
    76   76   77 1   
    77   76   85 1   
    78   77   78 1   
    79   77   80 1   
    80   77   86 1   
    81   78   79 2   
    82   78   93 1   
    83   80   81 1   
    84   80   87 1   
    85   80   88 1   
    86   81   82 1   
    87   81   89 1   
    88   81   90 1   
    89   82   83 1   
    90   82   84 2   
    91   83   91 1   
    92   83   92 1   
    93   93   94 1   
    94   93  100 1   
    95   94   95 1   
    96   94   97 1   
    97   94  101 1   
    98   95   96 2   
    99   95  109 1   
   100   97   98 1   
   101   97   99 1   
   102   97  102 1   
   103   98  103 1   
   104   98  104 1   
   105   98  105 1   
   106   99  106 1   
   107   99  107 1   
   108   99  108 1   
   109  109  110 1   
   110  109  117 1   
   111  110  111 1   
   112  110  113 1   
   113  110  118 1   
   114  111  112 2   
   115  111  123 1   
   116  113  114 1   
   117  113  119 1   
   118  113  120 1   
   119  114  115 1   
   120  114  116 2   
   121  115  121 1   
   122  115  122 1   
   123  123  124 1   
   124  123  135 1   
   125  124  125 1   
   126  124  127 1   
   127  124  136 1   
   128  125  126 2   
   129  125  144 1   
   130  127  128 1   
   131  127  137 1   
   132  127  138 1   
   133  128  129 ar  
   134  128  130 ar  
   135  129  131 ar  
   136  129  139 1   
   137  130  132 ar  
   138  130  140 1   
   139  131  133 ar  
   140  131  141 1   
   141  132  133 ar  
   142  132  142 1   
   143  133  134 1   
   144  134  143 1   
   145  144  145 1   
   146  144  153 1   
   147  145  146 1   
   148  145  148 1   
   149  145  154 1   
   150  146  147 2   
   151  146  159 1   
   152  148  149 1   
   153  148  155 1   
   154  148  156 1   
   155  149  150 1   
   156  149  157 1   
   157  149  158 1   
   158  150  151 1   
   159  150  152 1   
   160  159  160 1   
   161  159  168 1   
   162  160  161 1   
   163  160  163 1   
   164  160  169 1   
   165  161  162 2   
   166  161  174 1   
   167  163  164 1   
   168  163  170 1   
   169  163  171 1   
   170  164  165 1   
   171  164  172 1   
   172  164  173 1   
   173  165  166 1   
   174  165  167 1   
   175  174  175 1   
   176  174  179 1   
   177  175  176 1   
   178  175  177 1   
   179  175  178 1   
   180  181  182 1   
   181  181  183 1   
   182  184  185 1   
   183  184  186 1   
   184  187  188 1   
   185  187  189 1   
   186  190  191 1   
   187  190  192 1   
   188  193  194 1   
   189  193  195 1   
@<TRIPOS>SUBSTRUCTURE
     1 MOL         1 TEMP              0 ****  ****    0 ROOT
