@<TRIPOS>MOLECULE
MOL
  188   182     1     0     0
SMALL
resp


@<TRIPOS>ATOM
      1 C1         -3.7350    0.9850   -3.5400 c3        1 MOL     -0.346977
      2 C2         -4.4500    1.0610   -2.1970 c         1 MOL      0.780222
      3 O1         -3.9240    0.6080   -1.2100 o         1 MOL     -0.656303
      4 H1         -4.1710    1.7110   -4.2250 hc        1 MOL      0.079935
      5 H2         -2.6770    1.2070   -3.4020 hc        1 MOL      0.079935
      6 H3         -3.8450   -0.0180   -3.9550 hc        1 MOL      0.079935
      7 N1         -5.7040    1.5520   -2.2270 n         1 MOL     -0.525882
      8 C3         -6.7110    1.2630   -1.2030 c3        1 MOL      0.275829
      9 C4         -6.8260   -0.2660   -0.9520 c         1 MOL      0.481567
     10 O2         -6.9730   -0.6130    0.2380 o         1 MOL     -0.477397
     11 C5         -6.6920    2.1140   -0.0190 c3        1 MOL     -0.210080
     12 C6         -6.7970    3.6680   -0.2910 c         1 MOL      0.668840
     13 O3         -6.7820    4.4610    0.6970 o         1 MOL     -0.655256
     14 O4         -6.9440    4.0200   -1.4360 o         1 MOL     -0.655256
     15 H4         -6.0300    1.8470   -3.1420 hn        1 MOL      0.268319
     16 H5         -7.6960    1.4570   -1.6240 h1        1 MOL     -0.006062
     17 H6         -5.7700    1.8480    0.4900 hc        1 MOL      0.046393
     18 H7         -7.4830    1.8510    0.6770 hc        1 MOL      0.046393
     19 N2         -6.7940   -1.1250   -1.9850 n         1 MOL     -0.520582
     20 C7         -6.5860   -2.6140   -1.8720 c3        1 MOL     -0.115726
     21 C8         -5.4030   -3.1330   -0.9840 c         1 MOL      0.573191
     22 O5         -5.2780   -4.2950   -0.6650 o         1 MOL     -0.580367
     23 C9         -6.5820   -3.3140   -3.2250 c3        1 MOL     -0.071272
     24 C10        -7.9190   -3.2060   -3.8080 c3        1 MOL      0.179225
     25 C11        -7.7910   -3.7600   -5.2670 c3        1 MOL     -0.185085
     26 C12        -9.1160   -4.4490   -5.7590 c3        1 MOL     -0.017918
     27 N3         -9.3800   -5.6850   -4.9930 n4        1 MOL     -0.284934
     28 H8         -6.7120   -0.6790   -2.8870 hn        1 MOL      0.259538
     29 H9         -7.5230   -2.9710   -1.4470 h1        1 MOL      0.116543
     30 H10        -6.2810   -4.3560   -3.1330 hc        1 MOL      0.043843
     31 H11        -5.8350   -2.9020   -3.9000 hc        1 MOL      0.043843
     32 H12        -8.3260   -2.1930   -3.8060 hc        1 MOL     -0.007876
     33 H13        -8.5840   -3.8830   -3.2720 hc        1 MOL     -0.007876
     34 H14        -7.0170   -4.5190   -5.4040 hc        1 MOL      0.093495
     35 H15        -7.6140   -2.8810   -5.8880 hc        1 MOL      0.093495
     36 H16        -9.1230   -4.7350   -6.8050 hx        1 MOL      0.096614
     37 H17        -9.8800   -3.7190   -5.5150 hx        1 MOL      0.096614
     38 H18        -9.2180   -5.5730   -4.0000 hn        1 MOL      0.295766
     39 H19       -10.3540   -5.9230   -5.0120 hn        1 MOL      0.295766
     40 H20        -8.8100   -6.4510   -5.3070 hn        1 MOL      0.295766
     41 N4         -4.4110   -2.3190   -0.6510 n         1 MOL     -0.320106
     42 C13        -3.2120   -2.6150    0.1070 c3        1 MOL     -0.066463
     43 C14        -3.5550   -2.8430    1.5940 c         1 MOL      0.670832
     44 O6         -4.4180   -2.2460    2.1620 o         1 MOL     -0.495702
     45 C15        -2.1630   -1.4810    0.0320 c3        1 MOL     -0.179219
     46 C16        -0.8670   -1.7280    0.7930 c         1 MOL      0.577775
     47 O7         -0.7120   -1.3470    2.0060 o         1 MOL     -0.663380
     48 O8         -0.0360   -2.4970    0.2400 o         1 MOL     -0.663380
     49 H21        -4.5070   -1.3380   -0.8850 hn        1 MOL      0.261525
     50 H22        -2.7590   -3.5190   -0.2980 h1        1 MOL      0.089779
     51 H23        -2.6600   -0.6360    0.5160 hc        1 MOL      0.121117
     52 H24        -1.9610   -1.3340   -1.0240 hc        1 MOL      0.121117
     53 N5         -2.8210   -3.7470    2.2590 n         1 MOL     -0.459659
     54 C17        -2.9840   -4.1790    3.6760 c3        1 MOL     -0.058774
     55 C18        -2.9750   -3.0170    4.6950 c         1 MOL      0.522744
     56 O9         -3.5580   -3.2170    5.7820 o         1 MOL     -0.580208
     57 H25        -2.1400   -4.2710    1.7190 hn        1 MOL      0.263222
     58 H26        -2.1410   -4.7930    3.9820 h1        1 MOL      0.072091
     59 H27        -3.9080   -4.7000    3.9020 h1        1 MOL      0.072091
     60 N6         -2.3510   -1.9470    4.3390 n         1 MOL     -0.278427
     61 C19        -2.3070   -0.7290    5.1570 c3        1 MOL     -0.053466
     62 C20        -2.5950    0.5880    4.3300 c         1 MOL      0.426350
     63 O10        -2.4350    1.6620    4.8580 o         1 MOL     -0.531922
     64 C21        -0.9860   -0.7900    5.9460 c3        1 MOL     -0.265323
     65 C22         0.2650   -0.4670    5.1970 c         1 MOL      0.614514
     66 N7          0.3830    0.7510    4.7130 n         1 MOL     -0.677177
     67 O11         1.1160   -1.3060    4.8390 o         1 MOL     -0.625661
     68 H28        -1.8010   -1.8940    3.4870 hn        1 MOL      0.277451
     69 H29        -3.1320   -0.5930    5.8550 h1        1 MOL      0.137501
     70 H30        -0.7940   -1.7580    6.4220 hc        1 MOL      0.104958
     71 H31        -0.9620   -0.0640    6.7540 hc        1 MOL      0.104958
     72 H32        -0.3810    1.3970    4.8920 hn        1 MOL      0.311188
     73 H33         1.1910    1.0830    4.1970 hn        1 MOL      0.311188
     74 N8         -2.9820    0.4820    3.1030 n         1 MOL      0.020223
     75 C23        -3.1400    1.6250    2.2040 c3        1 MOL     -0.333257
     76 C24        -1.7990    2.1810    1.6130 c         1 MOL      0.676421
     77 O12        -0.7320    1.9720    2.1090 o         1 MOL     -0.487326
     78 H34        -3.3400   -0.4140    2.8040 hn        1 MOL      0.067938
     79 H35        -3.5880    2.4240    2.7920 h1        1 MOL      0.134148
     80 H36        -3.7850    1.4010    1.3490 h1        1 MOL      0.134148
     81 N9         -1.9250    3.0670    0.5760 n         1 MOL     -0.615616
     82 C25        -0.7390    3.6680   -0.1080 c3        1 MOL      0.256983
     83 C26         0.1830    2.6130   -0.7430 c         1 MOL      0.432449
     84 O13        -0.2330    1.5000   -1.0400 o         1 MOL     -0.480004
     85 C27        -1.1940    4.7300   -1.2080 c3        1 MOL     -0.094288
     86 C28        -2.2280    5.7670   -0.7930 ca        1 MOL      0.051773
     87 C29        -3.6070    5.5210   -1.0200 ca        1 MOL     -0.225085
     88 C30        -1.8010    6.9980   -0.3610 ca        1 MOL     -0.225085
     89 C31        -4.5360    6.4910   -0.5440 ca        1 MOL     -0.164595
     90 C32        -2.7540    8.0070   -0.0720 ca        1 MOL     -0.164595
     91 C33        -4.1320    7.7390   -0.0980 ca        1 MOL      0.360455
     92 O14        -4.9670    8.7440    0.2670 oh        1 MOL     -0.563223
     93 H37        -2.8090    3.2850    0.1360 hn        1 MOL      0.376550
     94 H38        -0.0990    4.1150    0.6460 h1        1 MOL     -0.004094
     95 H39        -1.6340    4.1680   -2.0310 hc        1 MOL      0.033790
     96 H40        -0.3200    5.2280   -1.6180 hc        1 MOL      0.033790
     97 H41        -3.9900    4.5650   -1.3170 ha        1 MOL      0.123394
     98 H42        -0.7640    7.2750   -0.4470 ha        1 MOL      0.123394
     99 H43        -5.5870    6.2620   -0.6440 ha        1 MOL      0.109011
    100 H44        -2.3610    9.0160    0.0220 ha        1 MOL      0.109011
    101 H45        -5.8580    8.6350   -0.0710 ho        1 MOL      0.423537
    102 N10         1.4730    3.0370   -0.9740 n         1 MOL     -0.583466
    103 C34         2.5790    2.1940   -1.4250 c3        1 MOL      0.136340
    104 C35         3.7370    2.1730   -0.4160 c         1 MOL      0.410622
    105 O15         4.2840    1.1690   -0.0180 o         1 MOL     -0.337947
    106 C36         3.0640    2.5550   -2.8560 c3        1 MOL      0.108645
    107 C37         1.9750    2.5290   -3.9240 c3        1 MOL      0.019577
    108 C38         4.2080    1.6020   -3.3050 c3        1 MOL     -0.542660
    109 C39         2.3660    2.9560   -5.3460 c3        1 MOL     -0.353225
    110 H46         1.5930    4.0430   -0.9460 hn        1 MOL      0.265949
    111 H47         2.2970    1.1310   -1.4510 h1        1 MOL      0.077927
    112 H48         3.4910    3.5530   -2.8910 hc        1 MOL     -0.035035
    113 H49         1.1510    3.2080   -3.6830 hc        1 MOL      0.073373
    114 H50         1.5550    1.5200   -3.9490 hc        1 MOL      0.073373
    115 H51         4.9460    1.5240   -2.5180 hc        1 MOL      0.149889
    116 H52         3.8410    0.6070   -3.5720 hc        1 MOL      0.149889
    117 H53         4.8130    2.0560   -4.0910 hc        1 MOL      0.149889
    118 H54         3.1130    3.7550   -5.3210 hc        1 MOL      0.092592
    119 H55         2.8180    2.1190   -5.8700 hc        1 MOL      0.092592
    120 H56         1.4670    3.3610   -5.8060 hc        1 MOL      0.092592
    121 N11         4.2110    3.3880    0.0190 n         1 MOL     -0.485863
    122 C40         5.4430    3.7420    0.7990 c3        1 MOL      0.021227
    123 C41         6.7410    3.2480    0.1100 c         1 MOL      0.461682
    124 O16         7.6070    2.8510    0.8680 o         1 MOL     -0.491026
    125 C42         5.4980    5.2880    1.0180 c3        1 MOL      0.112313
    126 O17         4.7000    5.6230    2.0950 oh        1 MOL     -0.558054
    127 H57         3.6320    4.1570   -0.2790 hn        1 MOL      0.319394
    128 H58         5.3270    3.3130    1.7970 h1        1 MOL      0.151757
    129 H59         5.0700    5.7930    0.1500 h1        1 MOL      0.033560
    130 H60         6.5230    5.6070    1.2180 h1        1 MOL      0.033560
    131 H61         4.6550    6.5700    1.9440 ho        1 MOL      0.397784
    132 N12         6.7800    3.2030   -1.2100 n         1 MOL     -0.497021
    133 C43         7.8100    2.3950   -1.9120 c3        1 MOL      0.356443
    134 C44         8.0400    0.9380   -1.5090 c         1 MOL      0.250301
    135 O18         9.1570    0.3660   -1.6790 o         1 MOL     -0.497230
    136 C45         9.1810    3.1740   -2.0790 c3        1 MOL     -0.633153
    137 H62         6.0420    3.6540   -1.7380 hn        1 MOL      0.296243
    138 H63         7.3620    2.3910   -2.9080 h1        1 MOL      0.037092
    139 H64         9.7460    2.7800   -2.9210 hc        1 MOL      0.182409
    140 H65         8.9970    4.2430   -2.2130 hc        1 MOL      0.182409
    141 H66         9.7280    3.0560   -1.1470 hc        1 MOL      0.182409
    142 N13         6.9690    0.3320   -0.9290 n         1 MOL     -0.034768
    143 C46         6.9360   -1.0110   -0.3060 c3        1 MOL      0.662474
    144 C47         6.1600   -1.9960   -1.1470 c         1 MOL     -0.147660
    145 O19         5.2540   -1.6720   -1.9340 o         1 MOL     -0.390148
    146 C48         6.5090   -0.9210    1.1520 c3        1 MOL     -0.502442
    147 H67         6.1770    0.9360   -0.7810 hn        1 MOL     -0.046738
    148 H68         7.9850   -1.3290   -0.3050 h1        1 MOL     -0.056106
    149 H69         5.6890   -0.2180    1.2850 hc        1 MOL      0.112369
    150 H70         6.3110   -1.8970    1.5830 hc        1 MOL      0.112369
    151 H71         7.4340   -0.5420    1.5880 hc        1 MOL      0.112369
    152 N14         6.4650   -3.2720   -1.0200 n         1 MOL     -0.304596
    153 C49         6.0040   -4.4350   -1.7450 c3        1 MOL     -0.340177
    154 C50         6.2330   -4.4830   -3.2210 c         1 MOL      0.541662
    155 O20         6.0550   -5.4920   -3.8630 o         1 MOL     -0.511261
    156 C51         4.5640   -4.8070   -1.4130 c3        1 MOL      0.161972
    157 C52         4.3030   -4.9320    0.0780 c3        1 MOL     -0.132990
    158 C53         2.8320   -5.2130    0.4000 c         1 MOL      0.573847
    159 O21         2.1280   -4.2960    0.8930 o         1 MOL     -0.656418
    160 O22         2.3930   -6.3300    0.1660 o         1 MOL     -0.656418
    161 H72         7.1660   -3.4660   -0.3140 hn        1 MOL      0.325453
    162 H73         6.6220   -5.2900   -1.4650 h1        1 MOL      0.164957
    163 H74         4.2260   -5.7240   -1.8910 hc        1 MOL      0.051284
    164 H75         3.8460   -4.0880   -1.7900 hc        1 MOL      0.051284
    165 H76         4.6680   -4.0470    0.6040 hc        1 MOL      0.004301
    166 H77         4.9130   -5.7210    0.5370 hc        1 MOL      0.004301
    167 N15         6.7820   -3.3610   -3.7970 n         1 MOL     -0.311723
    168 C54         7.0960   -3.2430   -5.2430 c3        1 MOL     -0.119128
    169 H78         6.3220   -2.6550   -5.7360 h1        1 MOL      0.074050
    170 H79         8.0610   -2.7500   -5.3670 h1        1 MOL      0.074050
    171 H80         7.1360   -4.2370   -5.6880 h1        1 MOL      0.074050
    172 H81         6.9820   -2.5470   -3.2310 hn        1 MOL      0.302542
    173 Ca1         1.6430   -2.2300    2.2880 Ca        1 MOL      1.697768
    174 O23         0.1920   -4.1240    3.3040 oh        1 MOL     -0.814695
    175 O24         3.2490   -1.4900    0.2500 oh        1 MOL     -0.814695
    176 H82        -0.0990   -4.7990    2.6880 ho        1 MOL      0.406820
    177 H83         3.0330   -1.6490   -0.6680 ho        1 MOL      0.406820
    178 H84         0.3410   -4.5940    4.1280 ho        1 MOL      0.406820
    179 H85         3.7250   -0.6560    0.2370 ho        1 MOL      0.406820
    180 O25         1.6760    0.5380    2.2160 oh        1 MOL     -0.814695
    181 H86         2.1350    1.2090    2.7040 ho        1 MOL      0.406820
    182 H87         0.8100    0.9120    2.0490 ho        1 MOL      0.406820
    183 O26         2.9240   -3.7740    4.2040 oh        1 MOL     -0.814695
    184 H88         3.3500   -4.6020    3.9850 ho        1 MOL      0.406820
    185 H89         3.5250   -3.3470    4.8090 ho        1 MOL      0.406820
    186 O27         4.0730   -1.1930    3.3940 oh        1 MOL     -0.814695
    187 H90         4.6440   -1.6700    3.9980 ho        1 MOL      0.406820
    188 H91         4.3770   -0.2820    3.4440 ho        1 MOL      0.406820
@<TRIPOS>BOND
     1    1    2 1   
     2    1    4 1   
     3    1    5 1   
     4    1    6 1   
     5    2    3 2   
     6    2    7 1   
     7    7    8 1   
     8    7   15 1   
     9    8    9 1   
    10    8   11 1   
    11    8   16 1   
    12    9   10 2   
    13    9   19 1   
    14   11   12 1   
    15   11   17 1   
    16   11   18 1   
    17   12   13 1   
    18   12   14 1   
    19   19   20 1   
    20   19   28 1   
    21   20   21 1   
    22   20   23 1   
    23   20   29 1   
    24   21   22 2   
    25   21   41 1   
    26   23   24 1   
    27   23   30 1   
    28   23   31 1   
    29   24   25 1   
    30   24   32 1   
    31   24   33 1   
    32   25   26 1   
    33   25   34 1   
    34   25   35 1   
    35   26   27 1   
    36   26   36 1   
    37   26   37 1   
    38   27   38 1   
    39   27   39 1   
    40   27   40 1   
    41   41   42 1   
    42   41   49 1   
    43   42   43 1   
    44   42   45 1   
    45   42   50 1   
    46   43   44 2   
    47   43   53 1   
    48   45   46 1   
    49   45   51 1   
    50   45   52 1   
    51   46   47 1   
    52   46   48 1   
    53   53   54 1   
    54   53   57 1   
    55   54   55 1   
    56   54   58 1   
    57   54   59 1   
    58   55   56 2   
    59   55   60 1   
    60   60   61 1   
    61   60   68 1   
    62   61   62 1   
    63   61   64 1   
    64   61   69 1   
    65   62   63 2   
    66   62   74 1   
    67   64   65 1   
    68   64   70 1   
    69   64   71 1   
    70   65   66 1   
    71   65   67 2   
    72   66   72 1   
    73   66   73 1   
    74   74   75 1   
    75   74   78 1   
    76   75   76 1   
    77   75   79 1   
    78   75   80 1   
    79   76   77 2   
    80   76   81 1   
    81   81   82 1   
    82   81   93 1   
    83   82   83 1   
    84   82   85 1   
    85   82   94 1   
    86   83   84 2   
    87   83  102 1   
    88   85   86 1   
    89   85   95 1   
    90   85   96 1   
    91   86   87 ar  
    92   86   88 ar  
    93   87   89 ar  
    94   87   97 1   
    95   88   90 ar  
    96   88   98 1   
    97   89   91 ar  
    98   89   99 1   
    99   90   91 ar  
   100   90  100 1   
   101   91   92 1   
   102   92  101 1   
   103  102  103 1   
   104  102  110 1   
   105  103  104 1   
   106  103  106 1   
   107  103  111 1   
   108  104  105 2   
   109  104  121 1   
   110  106  107 1   
   111  106  108 1   
   112  106  112 1   
   113  107  109 1   
   114  107  113 1   
   115  107  114 1   
   116  108  115 1   
   117  108  116 1   
   118  108  117 1   
   119  109  118 1   
   120  109  119 1   
   121  109  120 1   
   122  121  122 1   
   123  121  127 1   
   124  122  123 1   
   125  122  125 1   
   126  122  128 1   
   127  123  124 2   
   128  123  132 1   
   129  125  126 1   
   130  125  129 1   
   131  125  130 1   
   132  126  131 1   
   133  132  133 1   
   134  132  137 1   
   135  133  134 1   
   136  133  136 1   
   137  133  138 1   
   138  134  135 2   
   139  134  142 1   
   140  136  139 1   
   141  136  140 1   
   142  136  141 1   
   143  142  143 1   
   144  142  147 1   
   145  143  144 1   
   146  143  146 1   
   147  143  148 1   
   148  144  145 2   
   149  144  152 1   
   150  146  149 1   
   151  146  150 1   
   152  146  151 1   
   153  152  153 1   
   154  152  161 1   
   155  153  154 1   
   156  153  156 1   
   157  153  162 1   
   158  154  155 2   
   159  154  167 1   
   160  156  157 1   
   161  156  163 1   
   162  156  164 1   
   163  157  158 1   
   164  157  165 1   
   165  157  166 1   
   166  158  159 1   
   167  158  160 1   
   168  167  168 1   
   169  167  172 1   
   170  168  169 1   
   171  168  170 1   
   172  168  171 1   
   173  174  176 1   
   174  174  178 1   
   175  175  177 1   
   176  175  179 1   
   177  180  181 1   
   178  180  182 1   
   179  183  184 1   
   180  183  185 1   
   181  186  187 1   
   182  186  188 1   
@<TRIPOS>SUBSTRUCTURE
     1 MOL         1 TEMP              0 ****  ****    0 ROOT
