@<TRIPOS>MOLECULE
MOL
  186   183     1     0     0
SMALL
resp


@<TRIPOS>ATOM
      1 C1         11.8420    4.2360   -4.1010 c3        1 MOL     -0.417455
      2 C2         11.5440    3.4210   -2.8060 c         1 MOL      0.762601
      3 O1         11.6200    2.1660   -2.8540 o         1 MOL     -0.594388
      4 H1         10.9420    4.7670   -4.4100 hc        1 MOL      0.107939
      5 H2         12.6380    4.9540   -3.9040 hc        1 MOL      0.107939
      6 H3         12.1530    3.5570   -4.8950 hc        1 MOL      0.107939
      7 N1         11.1720    3.9980   -1.7190 n         1 MOL     -0.596114
      8 C3         10.9500    3.3050   -0.4290 c3        1 MOL     -0.134537
      9 C4          9.7900    2.3570   -0.4410 c         1 MOL      0.325883
     10 O2          8.7480    2.6320   -1.0550 o         1 MOL     -0.519682
     11 C5         10.8130    4.2760    0.7690 c3        1 MOL     -0.323166
     12 C6         10.0680    5.5980    0.4770 c         1 MOL      0.922130
     13 O3          8.8160    5.6180    0.5540 o         1 MOL     -0.782103
     14 O4         10.6380    6.6390    0.0940 o         1 MOL     -0.782103
     15 H4         11.1980    5.0010   -1.7310 hn        1 MOL      0.361235
     16 H5         11.8400    2.7110   -0.2020 h1        1 MOL      0.162177
     17 H6         11.8080    4.6100    1.0940 hc        1 MOL      0.109648
     18 H7         10.2700    3.7570    1.5560 hc        1 MOL      0.109648
     19 N2          9.9070    1.1990    0.2440 n         1 MOL     -0.065770
     20 C7          9.1840    0.0390   -0.0250 c3        1 MOL     -0.394060
     21 C8          7.6640    0.0730    0.1980 c         1 MOL      0.563654
     22 O5          7.0020   -0.8260   -0.2310 o         1 MOL     -0.480101
     23 C9          9.8020   -1.2500    0.5830 c3        1 MOL     -0.085495
     24 C10         9.3280   -1.5300    1.9990 c3        1 MOL      0.105205
     25 C11         9.8600   -2.8760    2.6060 c3        1 MOL     -0.323389
     26 C12         9.3610   -3.1860    4.0670 c3        1 MOL      0.175310
     27 N3         10.1850   -4.2600    4.6550 n4        1 MOL     -0.382576
     28 H8         10.8580    1.0740    0.5640 hn        1 MOL      0.216028
     29 H9          9.1990   -0.0700   -1.1050 h1        1 MOL      0.228899
     30 H10        10.8550   -0.9980    0.6810 hc        1 MOL      0.065318
     31 H11         9.7390   -2.1200   -0.0720 hc        1 MOL      0.065318
     32 H12         8.2500   -1.6460    1.9880 hc        1 MOL      0.022811
     33 H13         9.6960   -0.6850    2.5800 hc        1 MOL      0.022811
     34 H14        10.9210   -3.0890    2.5150 hc        1 MOL      0.100098
     35 H15         9.3530   -3.6280    1.9900 hc        1 MOL      0.100098
     36 H16         8.2970   -3.3870    4.0390 hx        1 MOL      0.045977
     37 H17         9.5830   -2.2490    4.5810 hx        1 MOL      0.045977
     38 H18        10.4230   -5.0250    4.0390 hn        1 MOL      0.330167
     39 H19        11.0450   -3.8280    4.9690 hn        1 MOL      0.330167
     40 H20         9.7830   -4.6250    5.5050 hn        1 MOL      0.330167
     41 N4          7.0460    1.1260    0.7470 n         1 MOL     -0.374570
     42 C13         5.5270    1.1260    0.7160 c3        1 MOL      0.086947
     43 C14         4.9770    1.5290   -0.6040 c         1 MOL      0.598853
     44 O6          5.5780    2.3680   -1.2970 o         1 MOL     -0.716345
     45 C15         5.0840    2.0800    1.8430 c3        1 MOL     -0.409892
     46 C16         5.7330    3.4700    1.9580 c         1 MOL      0.448971
     47 O7          5.5210    4.1610    2.9580 o         1 MOL     -0.586624
     48 O8          6.6310    3.6960    1.1550 o         1 MOL     -0.586624
     49 H21         7.5820    1.9650    0.8700 hn        1 MOL      0.307285
     50 H22         5.1410    0.1830    1.0880 h1        1 MOL     -0.043753
     51 H23         5.4140    1.7100    2.8160 hc        1 MOL      0.171246
     52 H24         3.9960    2.2100    1.8430 hc        1 MOL      0.171246
     53 N5          3.8500    0.9940   -1.0720 n         1 MOL     -0.457745
     54 C17         3.1390   -0.1150   -0.4080 c3        1 MOL      0.079238
     55 C18         3.8780   -1.4880   -0.2600 c         1 MOL      0.727228
     56 O9          4.2720   -2.0930   -1.2640 o         1 MOL     -0.620614
     57 H25         3.5190    1.2840   -1.9840 hn        1 MOL      0.318871
     58 H26         2.2660   -0.3980   -0.9900 h1        1 MOL     -0.005016
     59 H27         2.8210    0.1610    0.5960 h1        1 MOL     -0.005016
     60 N6          3.7420   -2.1110    0.9550 n         1 MOL     -0.231630
     61 C19         4.4220   -3.2990    1.4640 c3        1 MOL     -0.066102
     62 C20         3.4210   -4.4720    1.5170 c         1 MOL      0.530042
     63 O10         2.5190   -4.4260    2.3610 o         1 MOL     -0.469665
     64 C21         4.9920   -2.9590    2.8760 c3        1 MOL     -0.215578
     65 C22         5.6900   -4.1620    3.6000 c         1 MOL      0.804631
     66 O11         5.4560   -4.3720    4.8010 o         1 MOL     -0.725128
     67 O12         6.4460   -4.8740    2.8580 o         1 MOL     -0.725128
     68 H28         2.9910   -1.7410    1.5360 hn        1 MOL      0.196128
     69 H29         5.2260   -3.5650    0.7880 h1        1 MOL      0.054446
     70 H30         4.1410   -2.6820    3.5050 hc        1 MOL      0.044629
     71 H31         5.6780   -2.1200    2.7450 hc        1 MOL      0.044629
     72 N7          3.5990   -5.5490    0.7090 n         1 MOL     -0.321484
     73 C23         2.6990   -6.6820    0.4970 c3        1 MOL     -0.281535
     74 C24         1.3860   -6.2920   -0.2510 c         1 MOL      0.579925
     75 O13         0.5540   -7.1090   -0.5010 o         1 MOL     -0.536892
     76 H32         4.4360   -5.4840    0.1410 hn        1 MOL      0.262976
     77 H33         2.4100   -6.9860    1.4990 h1        1 MOL      0.149965
     78 H34         3.0970   -7.4700   -0.1450 h1        1 MOL      0.149965
     79 N8          1.2440   -4.9870   -0.6610 n         1 MOL     -0.273012
     80 C25         0.1800   -4.5050   -1.5170 c3        1 MOL     -0.073986
     81 C26        -0.2630   -3.0730   -1.1050 c         1 MOL      0.688281
     82 O14         0.5960   -2.3290   -0.6650 o         1 MOL     -0.525487
     83 C27         0.7050   -4.5460   -2.9670 c3        1 MOL      0.467502
     84 C28         1.9300   -3.6690   -3.2610 c3        1 MOL     -0.470040
     85 O15         0.9880   -5.8740   -3.2860 oh        1 MOL     -0.632424
     86 H35         1.8670   -4.2710   -0.3120 hn        1 MOL      0.059758
     87 H36        -0.6790   -5.1810   -1.4480 h1        1 MOL      0.084778
     88 H37        -0.1220   -4.1190   -3.5370 h1        1 MOL     -0.045004
     89 H38         1.9320   -6.0120   -3.1860 ho        1 MOL      0.404770
     90 H39         1.8180   -2.6040   -3.0220 hc        1 MOL      0.120457
     91 H40         2.7400   -4.0090   -2.6150 hc        1 MOL      0.120457
     92 H41         2.1600   -3.7950   -4.3190 hc        1 MOL      0.120457
     93 N9         -1.5600   -2.7530   -1.3370 n         1 MOL     -0.762191
     94 C29        -2.0090   -1.3130   -1.1360 c3        1 MOL      0.350767
     95 C30        -3.3470   -1.2900   -0.3250 c         1 MOL      0.467078
     96 O16        -3.5430   -0.5520    0.6890 o         1 MOL     -0.512128
     97 C31        -2.1650   -0.5650   -2.4850 c3        1 MOL     -0.102098
     98 C32        -0.6850   -0.3970   -3.1280 c3        1 MOL      0.089392
     99 C33        -2.8640    0.7840   -2.3710 c3        1 MOL     -0.019677
    100 C34        -0.7200    0.0460   -4.6110 c3        1 MOL     -0.368137
    101 H42        -2.1330   -3.4280   -1.8040 hn        1 MOL      0.341869
    102 H43        -1.2730   -0.8150   -0.5060 h1        1 MOL      0.029064
    103 H44        -2.8400   -1.0480   -3.1910 hc        1 MOL      0.055011
    104 H45        -0.1160   -1.3250   -3.0800 hc        1 MOL      0.027085
    105 H46        -0.2920    0.3480   -2.4470 hc        1 MOL      0.027085
    106 H47        -3.9530    0.7990   -2.3720 hc        1 MOL      0.015639
    107 H48        -2.4710    1.3230   -1.5090 hc        1 MOL      0.015639
    108 H49        -2.6640    1.4430   -3.2190 hc        1 MOL      0.015639
    109 H50        -0.8380   -0.7430   -5.3600 hc        1 MOL      0.090500
    110 H51        -1.5400    0.7390   -4.7690 hc        1 MOL      0.090500
    111 H52         0.2260    0.5220   -4.8520 hc        1 MOL      0.090500
    112 N10        -4.2580   -2.2410   -0.6760 n         1 MOL     -0.524221
    113 C35        -5.5880   -2.4070   -0.1150 c3        1 MOL     -0.034245
    114 C36        -6.6790   -2.5150   -1.1950 c         1 MOL      0.586019
    115 O17        -6.4880   -3.2260   -2.1500 o         1 MOL     -0.550616
    116 C37        -5.6990   -3.7490    0.6780 c3        1 MOL      0.560317
    117 C38        -4.6620   -3.8270    1.7400 c3        1 MOL     -0.509154
    118 O18        -6.9750   -3.9280    1.2130 oh        1 MOL     -0.679114
    119 H53        -4.0270   -2.8200   -1.4680 hn        1 MOL      0.266441
    120 H54        -5.9270   -1.6050    0.5330 h1        1 MOL      0.148913
    121 H55        -5.6360   -4.6710    0.1140 h1        1 MOL     -0.043087
    122 H56        -7.0560   -4.8720    1.3850 ho        1 MOL      0.405980
    123 H57        -3.7140   -3.3140    1.6050 hc        1 MOL      0.129969
    124 H58        -5.1250   -3.4570    2.6540 hc        1 MOL      0.129969
    125 H59        -4.3780   -4.8580    1.9280 hc        1 MOL      0.129969
    126 N11        -7.8990   -2.0310   -0.8540 n         1 MOL     -0.538393
    127 C39        -9.1440   -2.2070   -1.7400 c3        1 MOL      0.006400
    128 C40        -9.8640   -0.9340   -1.6480 c         1 MOL      0.713552
    129 O19       -10.2790   -0.3720   -2.6600 o         1 MOL     -0.603026
    130 C41        -9.9620   -3.4520   -1.2030 c3        1 MOL      0.389295
    131 C42       -11.3060   -3.6660   -1.7780 c3        1 MOL     -0.382260
    132 O20       -10.1490   -3.2250    0.1760 oh        1 MOL     -0.630405
    133 H60        -7.9790   -1.4460   -0.0390 hn        1 MOL      0.271365
    134 H61        -9.0150   -2.3780   -2.8110 h1        1 MOL      0.090551
    135 H62        -9.3400   -4.3430   -1.2640 h1        1 MOL      0.008451
    136 H63       -10.2930   -4.1390    0.4310 ho        1 MOL      0.392067
    137 H64       -11.0810   -4.2330   -2.6780 hc        1 MOL      0.092157
    138 H65       -11.9470   -4.1670   -1.0490 hc        1 MOL      0.092157
    139 H66       -11.6960   -2.7030   -2.1010 hc        1 MOL      0.092157
    140 N12       -10.1010   -0.3570   -0.4540 n         1 MOL     -0.563890
    141 C43       -10.5580    1.0420   -0.2550 c3        1 MOL      0.035740
    142 C44        -9.5340    1.9090    0.4660 c         1 MOL      0.466668
    143 O21        -8.8430    1.4300    1.4010 o         1 MOL     -0.480623
    144 C45       -11.8950    1.0690    0.4660 c3        1 MOL     -0.067201
    145 C46       -13.1190    0.6810   -0.4550 c3        1 MOL      0.018951
    146 C47       -14.4420    0.4630    0.2430 c3        1 MOL     -0.019275
    147 C48       -14.6500    1.6450    1.1970 c3        1 MOL      0.130653
    148 N13       -15.9840    1.5680    1.8530 n4        1 MOL     -0.481477
    149 H67        -9.7560   -0.8120    0.3750 hn        1 MOL      0.323141
    150 H68       -10.5810    1.4910   -1.2480 h1        1 MOL      0.085922
    151 H69       -11.9920    2.1240    0.7180 hc        1 MOL      0.060426
    152 H70       -11.8380    0.4980    1.3970 hc        1 MOL      0.060426
    153 H71       -12.9810   -0.2960   -0.9330 hc        1 MOL      0.020997
    154 H72       -13.2950    1.4750   -1.1820 hc        1 MOL      0.020997
    155 H73       -14.3300   -0.4270    0.8650 hc        1 MOL      0.032514
    156 H74       -15.2320    0.4190   -0.5060 hc        1 MOL      0.032514
    157 H75       -14.5000    2.5030    0.5400 hx        1 MOL      0.056457
    158 H76       -13.9110    1.6370    2.0030 hx        1 MOL      0.056457
    159 H77       -16.7420    1.7400    1.2110 hn        1 MOL      0.313030
    160 H78       -16.0710    0.7370    2.4270 hn        1 MOL      0.313030
    161 H79       -16.1680    2.3500    2.4660 hn        1 MOL      0.313030
    162 N14        -9.4530    3.2460    0.1640 n         1 MOL     -0.326813
    163 C49        -8.7640    4.3060    1.0140 c3        1 MOL      0.007890
    164 C50        -7.2560    4.1580    0.9450 c         1 MOL      0.435358
    165 O22        -6.5530    4.0760    1.9420 o         1 MOL     -0.481393
    166 C51        -9.2720    5.7760    0.7220 c3        1 MOL     -0.153681
    167 C52        -8.9050    6.6360    1.9170 c3        1 MOL     -0.043458
    168 C53       -10.1320    6.7180    2.8350 c         1 MOL      0.666974
    169 O23       -10.6630    7.8560    3.0390 o         1 MOL     -0.668645
    170 O24       -10.5430    5.6870    3.4460 o         1 MOL     -0.668645
    171 H80       -10.1830    3.4980   -0.4910 hn        1 MOL      0.238460
    172 H81        -9.0160    4.1460    2.0580 h1        1 MOL      0.084829
    173 H82       -10.3490    5.8650    0.5980 hc        1 MOL      0.040445
    174 H83        -8.8270    6.1750   -0.1880 hc        1 MOL      0.040445
    175 H84        -8.6500    7.6290    1.5360 hc        1 MOL      0.029052
    176 H85        -8.0390    6.3000    2.5080 hc        1 MOL      0.029052
    177 N15        -6.6270    4.1680   -0.2730 n         1 MOL     -0.379470
    178 C54        -7.0810    4.5070   -1.6560 c3        1 MOL      0.012943
    179 H86        -7.2030    5.5870   -1.7430 h1        1 MOL      0.035153
    180 H87        -6.3370    4.1670   -2.3760 h1        1 MOL      0.035153
    181 H88        -8.0330    4.0170   -1.8570 h1        1 MOL      0.035153
    182 H89        -5.6250    4.0080   -0.2280 hn        1 MOL      0.273000
    183 Ca1         6.8680    4.6370   -1.1430 Ca        1 MOL      1.720790
    184 O25         7.4630    3.4270   -3.6480 oh        1 MOL     -0.875088
    185 H90         7.7670    2.5240   -3.5200 ho        1 MOL      0.446336
    186 H91         7.3970    3.5220   -4.5930 ho        1 MOL      0.446336
@<TRIPOS>BOND
     1    1    2 1   
     2    1    4 1   
     3    1    5 1   
     4    1    6 1   
     5    2    3 2   
     6    2    7 1   
     7    7    8 1   
     8    7   15 1   
     9    8    9 1   
    10    8   11 1   
    11    8   16 1   
    12    9   10 2   
    13    9   19 1   
    14   11   12 1   
    15   11   17 1   
    16   11   18 1   
    17   12   13 1   
    18   12   14 1   
    19   19   20 1   
    20   19   28 1   
    21   20   21 1   
    22   20   23 1   
    23   20   29 1   
    24   21   22 2   
    25   21   41 1   
    26   23   24 1   
    27   23   30 1   
    28   23   31 1   
    29   24   25 1   
    30   24   32 1   
    31   24   33 1   
    32   25   26 1   
    33   25   34 1   
    34   25   35 1   
    35   26   27 1   
    36   26   36 1   
    37   26   37 1   
    38   27   38 1   
    39   27   39 1   
    40   27   40 1   
    41   41   42 1   
    42   41   49 1   
    43   42   43 1   
    44   42   45 1   
    45   42   50 1   
    46   43   44 2   
    47   43   53 1   
    48   45   46 1   
    49   45   51 1   
    50   45   52 1   
    51   46   47 1   
    52   46   48 1   
    53   53   54 1   
    54   53   57 1   
    55   54   55 1   
    56   54   58 1   
    57   54   59 1   
    58   55   56 2   
    59   55   60 1   
    60   60   61 1   
    61   60   68 1   
    62   61   62 1   
    63   61   64 1   
    64   61   69 1   
    65   62   63 2   
    66   62   72 1   
    67   64   65 1   
    68   64   70 1   
    69   64   71 1   
    70   65   66 1   
    71   65   67 1   
    72   72   73 1   
    73   72   76 1   
    74   73   74 1   
    75   73   77 1   
    76   73   78 1   
    77   74   75 2   
    78   74   79 1   
    79   79   80 1   
    80   79   86 1   
    81   80   81 1   
    82   80   83 1   
    83   80   87 1   
    84   81   82 2   
    85   81   93 1   
    86   83   84 1   
    87   83   85 1   
    88   83   88 1   
    89   84   90 1   
    90   84   91 1   
    91   84   92 1   
    92   85   89 1   
    93   93   94 1   
    94   93  101 1   
    95   94   95 1   
    96   94   97 1   
    97   94  102 1   
    98   95   96 2   
    99   95  112 1   
   100   97   98 1   
   101   97   99 1   
   102   97  103 1   
   103   98  100 1   
   104   98  104 1   
   105   98  105 1   
   106   99  106 1   
   107   99  107 1   
   108   99  108 1   
   109  100  109 1   
   110  100  110 1   
   111  100  111 1   
   112  112  113 1   
   113  112  119 1   
   114  113  114 1   
   115  113  116 1   
   116  113  120 1   
   117  114  115 2   
   118  114  126 1   
   119  116  117 1   
   120  116  118 1   
   121  116  121 1   
   122  117  123 1   
   123  117  124 1   
   124  117  125 1   
   125  118  122 1   
   126  126  127 1   
   127  126  133 1   
   128  127  128 1   
   129  127  130 1   
   130  127  134 1   
   131  128  129 2   
   132  128  140 1   
   133  130  131 1   
   134  130  132 1   
   135  130  135 1   
   136  131  137 1   
   137  131  138 1   
   138  131  139 1   
   139  132  136 1   
   140  140  141 1   
   141  140  149 1   
   142  141  142 1   
   143  141  144 1   
   144  141  150 1   
   145  142  143 2   
   146  142  162 1   
   147  144  145 1   
   148  144  151 1   
   149  144  152 1   
   150  145  146 1   
   151  145  153 1   
   152  145  154 1   
   153  146  147 1   
   154  146  155 1   
   155  146  156 1   
   156  147  148 1   
   157  147  157 1   
   158  147  158 1   
   159  148  159 1   
   160  148  160 1   
   161  148  161 1   
   162  162  163 1   
   163  162  171 1   
   164  163  164 1   
   165  163  166 1   
   166  163  172 1   
   167  164  165 2   
   168  164  177 1   
   169  166  167 1   
   170  166  173 1   
   171  166  174 1   
   172  167  168 1   
   173  167  175 1   
   174  167  176 1   
   175  168  169 1   
   176  168  170 1   
   177  177  178 1   
   178  177  182 1   
   179  178  179 1   
   180  178  180 1   
   181  178  181 1   
   182  184  185 1   
   183  184  186 1   
@<TRIPOS>SUBSTRUCTURE
     1 MOL         1 TEMP              0 ****  ****    0 ROOT
