@<TRIPOS>MOLECULE
MOL
  178   175     1     0     0
SMALL
resp


@<TRIPOS>ATOM
      1 C1         -3.2460    6.5490    2.8890 c3        1 MOL     -0.417835
      2 C2         -4.0720    6.4410    1.5620 c         1 MOL      0.689709
      3 O1         -3.6080    6.8180    0.5050 o         1 MOL     -0.569690
      4 H1         -3.4680    7.4970    3.3790 hc        1 MOL      0.106940
      5 H2         -3.5140    5.7270    3.5520 hc        1 MOL      0.106940
      6 H3         -2.1810    6.5000    2.6590 hc        1 MOL      0.106940
      7 N1         -5.3300    5.9450    1.6430 n         1 MOL     -0.569981
      8 C3         -6.4260    5.9070    0.6020 c3        1 MOL      0.212320
      9 C4         -6.2520    4.8650   -0.3870 c         1 MOL      0.558629
     10 O2         -7.2260    4.3280   -0.9830 o         1 MOL     -0.559607
     11 C5         -7.8760    6.1210    1.2580 c3        1 MOL     -0.294397
     12 C6         -8.4140    5.2170    2.4100 c         1 MOL      0.769412
     13 O3         -7.7050    4.3420    2.8700 o         1 MOL     -0.738797
     14 O4         -9.5890    5.4540    2.7790 o         1 MOL     -0.738797
     15 H4         -5.5720    5.5310    2.5320 hn        1 MOL      0.287827
     16 H5         -6.3670    6.7990   -0.0150 h1        1 MOL      0.042516
     17 H6         -8.6720    5.9950    0.5210 hc        1 MOL      0.044339
     18 H7         -7.9750    7.1510    1.5860 hc        1 MOL      0.044339
     19 N2         -4.9840    4.6400   -0.8170 n         1 MOL     -0.616109
     20 C7         -4.5840    3.7800   -1.8730 c3        1 MOL      0.630839
     21 C8         -3.1020    3.3210   -1.7440 c         1 MOL      0.273342
     22 O5         -2.2860    3.9980   -1.0570 o         1 MOL     -0.504274
     23 C9         -4.8610    4.5060   -3.2220 c3        1 MOL     -0.300570
     24 H8         -4.2940    5.1400   -0.2830 hn        1 MOL      0.241373
     25 H9         -5.2440    2.9170   -1.7810 h1        1 MOL     -0.087689
     26 H10        -4.4490    3.9490   -4.0570 hc        1 MOL      0.062372
     27 H11        -5.9340    4.6050   -3.3440 hc        1 MOL      0.062372
     28 H12        -4.3530    5.4710   -3.1770 hc        1 MOL      0.062372
     29 N3         -2.6340    2.2700   -2.4640 n         1 MOL     -0.134562
     30 C10        -3.4080    1.3270   -3.2850 c3        1 MOL     -0.189992
     31 C11        -3.9260    0.1300   -2.4490 c         1 MOL      0.443052
     32 O6         -3.1460   -0.3660   -1.6100 o         1 MOL     -0.490386
     33 C12        -2.5760    0.8420   -4.5060 c3        1 MOL     -0.195815
     34 C13        -1.1030    0.5090   -4.1310 c         1 MOL      0.672117
     35 O7         -0.7760    0.1370   -2.9240 o         1 MOL     -0.650252
     36 O8         -0.3180    0.5500   -5.0990 o         1 MOL     -0.650252
     37 H13        -1.6280    2.2290   -2.4910 hn        1 MOL      0.187888
     38 H14        -4.3110    1.8480   -3.6140 h1        1 MOL      0.069458
     39 H15        -2.5630    1.6490   -5.2430 hc        1 MOL      0.069473
     40 H16        -3.0660   -0.0410   -4.8920 hc        1 MOL      0.069473
     41 N4         -5.1030   -0.4700   -2.7200 n         1 MOL     -0.314478
     42 C14        -5.6370   -1.6150   -1.9960 c3        1 MOL     -0.056928
     43 C15        -5.6870   -1.2620   -0.4700 c         1 MOL      0.387780
     44 O9         -5.8200   -0.0910   -0.1380 o         1 MOL     -0.462982
     45 H17        -5.6180   -0.0970   -3.5050 hn        1 MOL      0.267018
     46 H18        -5.0230   -2.5090   -2.1420 h1        1 MOL      0.104098
     47 H19        -6.5980   -1.8590   -2.4380 h1        1 MOL      0.104098
     48 N5         -5.8480   -2.1900    0.4350 n         1 MOL     -0.355262
     49 C16        -5.7670   -3.6790    0.2200 c3        1 MOL     -0.011391
     50 C17        -4.9140   -4.3670    1.2650 c         1 MOL      0.550663
     51 O10        -4.6520   -5.5660    1.1480 o         1 MOL     -0.532300
     52 C18        -7.0940   -4.3750    0.0260 c3        1 MOL     -0.161127
     53 C19        -8.0390   -3.7330   -1.0050 c         1 MOL      0.680281
     54 N6         -9.0290   -3.0480   -0.5690 n         1 MOL     -0.766774
     55 O11        -7.9200   -4.0150   -2.1550 o         1 MOL     -0.576953
     56 H20        -6.0730   -1.7720    1.3220 hn        1 MOL      0.250053
     57 H21        -5.2820   -3.8370   -0.7470 h1        1 MOL      0.097386
     58 H22        -7.5840   -4.3930    1.0060 hc        1 MOL      0.058539
     59 H23        -6.9060   -5.4140   -0.2290 hc        1 MOL      0.058539
     60 H24        -9.2940   -2.8610    0.3910 hn        1 MOL      0.369081
     61 H25        -9.4720   -2.5770   -1.3500 hn        1 MOL      0.369081
     62 N7         -4.5440   -3.6980    2.3630 n         1 MOL     -0.313992
     63 C20        -3.7690   -4.1780    3.4990 c3        1 MOL     -0.213787
     64 C21        -2.3920   -4.8280    3.2670 c         1 MOL      0.497700
     65 O12        -1.7790   -5.1330    4.2800 o         1 MOL     -0.563635
     66 H26        -4.9900   -2.7940    2.4320 hn        1 MOL      0.245163
     67 H27        -4.3270   -4.8540    4.1540 h1        1 MOL      0.123047
     68 H28        -3.5830   -3.3060    4.1330 h1        1 MOL      0.123047
     69 N8         -1.8720   -4.8590    2.1120 n         1 MOL     -0.160357
     70 C22        -0.5110   -5.3450    1.6510 c3        1 MOL     -0.231444
     71 C23         0.3870   -4.1390    1.3190 c         1 MOL      0.661025
     72 O13        -0.0920   -3.1200    0.9040 o         1 MOL     -0.585315
     73 C24        -0.6510   -6.3290    0.4970 c3        1 MOL      0.416467
     74 C25        -1.6880   -7.4480    0.7150 c3        1 MOL     -0.361401
     75 O14        -1.0820   -5.6240   -0.5990 oh        1 MOL     -0.666821
     76 H29        -2.5160   -4.7220    1.3470 hn        1 MOL      0.249006
     77 H30        -0.0020   -5.9120    2.4320 h1        1 MOL      0.094057
     78 H31         0.3270   -6.7420    0.2520 h1        1 MOL      0.004204
     79 H32        -0.5520   -6.0210   -1.2920 ho        1 MOL      0.443269
     80 H33        -1.4390   -8.1690   -0.0540 hc        1 MOL      0.092636
     81 H34        -1.4520   -8.0110    1.6130 hc        1 MOL      0.092636
     82 H35        -2.7140   -7.0940    0.6110 hc        1 MOL      0.092636
     83 N9          1.6930   -4.4010    1.5930 n         1 MOL     -0.512351
     84 C26         2.8190   -3.4660    1.3840 c3        1 MOL      0.224595
     85 C27         3.3770   -3.6450    0.0060 c         1 MOL      0.477559
     86 O15         3.6830   -4.7690   -0.3830 o         1 MOL     -0.562213
     87 C28         3.9150   -3.5280    2.4700 c3        1 MOL     -0.057644
     88 C29         4.5920   -2.1180    2.4920 c3        1 MOL      0.160134
     89 C30         3.3310   -3.9310    3.8420 c3        1 MOL     -0.170239
     90 C31         5.6570   -1.8860    3.5880 c3        1 MOL     -0.096180
     91 H36         1.8290   -5.2940    2.0350 hn        1 MOL      0.282562
     92 H37         2.4420   -2.4440    1.4650 h1        1 MOL      0.009547
     93 H38         4.6050   -4.2830    2.0730 hc        1 MOL      0.018868
     94 H39         3.8250   -1.3800    2.7000 hc        1 MOL     -0.013647
     95 H40         5.0370   -1.8580    1.5410 hc        1 MOL     -0.013647
     96 H41         2.7060   -3.1250    4.2210 hc        1 MOL      0.050707
     97 H42         2.6990   -4.8170    3.9080 hc        1 MOL      0.050707
     98 H43         4.0320   -4.1080    4.6550 hc        1 MOL      0.050707
     99 H44         6.5240   -2.4950    3.3500 hc        1 MOL      0.002169
    100 H45         6.0170   -0.8510    3.5070 hc        1 MOL      0.002169
    101 H46         5.2700   -2.0210    4.5880 hc        1 MOL      0.002169
    102 N10         3.5060   -2.4670   -0.6120 n         1 MOL     -0.208778
    103 C32         3.9200   -2.3890   -2.0630 c3        1 MOL      0.120199
    104 C33         5.2040   -1.5200   -2.2520 c         1 MOL      0.296791
    105 O16         6.1170   -1.7570   -3.0660 o         1 MOL     -0.523219
    106 C34         2.7410   -1.8440   -2.9090 c3        1 MOL     -0.066367
    107 C35         1.5260   -2.7550   -2.9940 c         1 MOL      0.683526
    108 O17         0.5100   -2.5770   -2.2640 o         1 MOL     -0.707592
    109 O18         1.5400   -3.6350   -3.8980 o         1 MOL     -0.707592
    110 H47         3.2240   -1.6170   -0.1590 hn        1 MOL     -0.126133
    111 H48         4.1840   -3.3500   -2.5120 h1        1 MOL      0.067685
    112 H49         3.2510   -1.6580   -3.8650 hc        1 MOL      0.029097
    113 H50         2.4520   -0.9280   -2.4050 hc        1 MOL      0.029097
    114 N11         5.4280   -0.6320   -1.3120 n         1 MOL     -0.341873
    115 C36         6.5620    0.3310   -1.1910 c3        1 MOL      0.403405
    116 C37         6.1290    1.6760   -0.6090 c         1 MOL      0.089629
    117 O19         6.6310    2.0390    0.4310 o         1 MOL     -0.389674
    118 C38         7.7560   -0.3560   -0.5120 c3        1 MOL     -0.514476
    119 C39         9.0090    0.4740   -0.7410 ca        1 MOL      0.309675
    120 C40         9.7510    0.4410   -1.9660 ca        1 MOL     -0.264500
    121 C41         9.5670    1.1810    0.3370 ca        1 MOL     -0.264500
    122 C42        11.0190    1.0870   -2.0340 ca        1 MOL     -0.051408
    123 C43        10.7820    1.9110    0.2050 ca        1 MOL     -0.051408
    124 C44        11.5640    1.7150   -0.8950 ca        1 MOL     -0.197253
    125 H51         4.7200   -0.4790   -0.6170 hn        1 MOL      0.373647
    126 H52         6.9550    0.4870   -2.2010 h1        1 MOL      0.006956
    127 H53         7.8110   -1.3860   -0.8480 hc        1 MOL      0.160197
    128 H54         7.5940   -0.4450    0.5690 hc        1 MOL      0.160197
    129 H55         9.3040    0.0320   -2.8570 ha        1 MOL      0.144238
    130 H56         8.9430    1.2870    1.2230 ha        1 MOL      0.144238
    131 H57        11.5080    1.1850   -2.9910 ha        1 MOL      0.089999
    132 H58        11.1660    2.4630    1.0450 ha        1 MOL      0.089999
    133 H59        12.4990    2.2680   -0.9330 ha        1 MOL      0.105607
    134 N12         5.1710    2.4380   -1.2800 n         1 MOL      0.042706
    135 C45         4.8300    3.8200   -0.9150 c3        1 MOL      0.138395
    136 C46         4.2760    3.9630    0.4870 c         1 MOL      0.110621
    137 O20         4.3430    5.0230    1.0720 o         1 MOL     -0.469125
    138 C47         3.7390    4.2830   -1.8720 c3        1 MOL     -0.268109
    139 C48         4.0660    3.4600   -3.0660 c3        1 MOL      0.184715
    140 C49         4.4920    2.0920   -2.5310 c3        1 MOL     -0.085622
    141 H60         5.7350    4.4130   -1.0340 h1        1 MOL      0.050895
    142 H61         2.7450    3.9460   -1.5640 hc        1 MOL      0.106314
    143 H62         3.9250    5.3420   -2.0750 hc        1 MOL      0.106314
    144 H63         3.3440    3.4850   -3.8730 hc        1 MOL     -0.026569
    145 H64         4.9960    3.8770   -3.4700 hc        1 MOL     -0.026569
    146 H65         3.6820    1.3560   -2.4710 h1        1 MOL      0.039715
    147 H66         5.2540    1.9070   -3.2850 h1        1 MOL      0.039715
    148 N13         3.6480    2.9470    1.1010 n         1 MOL     -0.009846
    149 C50         3.0890    2.9510    2.4780 c3        1 MOL     -0.167981
    150 C51         4.0840    3.4540    3.5150 c         1 MOL      0.451031
    151 O21         3.7430    4.1240    4.5220 o         1 MOL     -0.555821
    152 C52         2.7930    1.5700    3.0270 c3        1 MOL      0.085412
    153 C53         1.8110    0.6440    2.2940 c3        1 MOL     -0.536439
    154 C54         2.2120    0.1410    0.9420 c         1 MOL      0.757389
    155 O22         1.2980   -0.4410    0.3650 o         1 MOL     -0.640119
    156 O23         3.3420    0.3690    0.4430 o         1 MOL     -0.640119
    157 H67         3.5870    2.0690    0.6040 hn        1 MOL      0.159524
    158 H68         2.1990    3.5690    2.4960 h1        1 MOL      0.126254
    159 H69         2.4150    1.6880    4.0450 hc        1 MOL      0.019351
    160 H70         3.7300    1.0420    3.1660 hc        1 MOL      0.019351
    161 H71         0.8890    1.2190    2.1710 hc        1 MOL      0.165067
    162 H72         1.5560   -0.1590    2.9870 hc        1 MOL      0.165067
    163 N14         5.4150    3.2810    3.2700 n         1 MOL     -0.091991
    164 C55         6.5940    3.7150    4.0570 c3        1 MOL     -0.292582
    165 H73         6.3850    4.6790    4.5210 h1        1 MOL      0.108167
    166 H74         6.8050    2.9780    4.8310 h1        1 MOL      0.108167
    167 H75         7.4570    3.8090    3.3980 h1        1 MOL      0.108167
    168 H76         5.6490    2.6180    2.5420 hn        1 MOL      0.164399
    169 Ca1        -0.8770   -1.2380   -0.6600 Ca        1 MOL      1.703488
    170 O24        -2.9220   -1.2690    1.2340 oh        1 MOL     -0.905193
    171 H77        -3.1690   -0.3460    1.3190 ho        1 MOL      0.428211
    172 H78        -3.4050   -1.7080    1.9320 ho        1 MOL      0.428211
    173 O25        -2.5200   -3.3620   -1.2130 oh        1 MOL     -0.905193
    174 H79        -2.7840   -3.4930   -2.1230 ho        1 MOL      0.428211
    175 H80        -2.3080   -4.2290   -0.8920 ho        1 MOL      0.428211
    176 O26        -1.3240    1.0270    0.4470 oh        1 MOL     -0.905193
    177 H81        -2.1260    1.5310    0.2930 ho        1 MOL      0.428211
    178 H82        -0.6770    1.6810    0.7170 ho        1 MOL      0.428211
@<TRIPOS>BOND
     1    1    2 1   
     2    1    4 1   
     3    1    5 1   
     4    1    6 1   
     5    2    3 2   
     6    2    7 1   
     7    7    8 1   
     8    7   15 1   
     9    8    9 1   
    10    8   11 1   
    11    8   16 1   
    12    9   10 2   
    13    9   19 1   
    14   11   12 1   
    15   11   17 1   
    16   11   18 1   
    17   12   13 1   
    18   12   14 1   
    19   19   20 1   
    20   19   24 1   
    21   20   21 1   
    22   20   23 1   
    23   20   25 1   
    24   21   22 2   
    25   21   29 1   
    26   23   26 1   
    27   23   27 1   
    28   23   28 1   
    29   29   30 1   
    30   29   37 1   
    31   30   31 1   
    32   30   33 1   
    33   30   38 1   
    34   31   32 2   
    35   31   41 1   
    36   33   34 1   
    37   33   39 1   
    38   33   40 1   
    39   34   35 1   
    40   34   36 1   
    41   41   42 1   
    42   41   45 1   
    43   42   43 1   
    44   42   46 1   
    45   42   47 1   
    46   43   44 2   
    47   43   48 1   
    48   48   49 1   
    49   48   56 1   
    50   49   50 1   
    51   49   52 1   
    52   49   57 1   
    53   50   51 2   
    54   50   62 1   
    55   52   53 1   
    56   52   58 1   
    57   52   59 1   
    58   53   54 1   
    59   53   55 2   
    60   54   60 1   
    61   54   61 1   
    62   62   63 1   
    63   62   66 1   
    64   63   64 1   
    65   63   67 1   
    66   63   68 1   
    67   64   65 2   
    68   64   69 1   
    69   69   70 1   
    70   69   76 1   
    71   70   71 1   
    72   70   73 1   
    73   70   77 1   
    74   71   72 2   
    75   71   83 1   
    76   73   74 1   
    77   73   75 1   
    78   73   78 1   
    79   74   80 1   
    80   74   81 1   
    81   74   82 1   
    82   75   79 1   
    83   83   84 1   
    84   83   91 1   
    85   84   85 1   
    86   84   87 1   
    87   84   92 1   
    88   85   86 2   
    89   85  102 1   
    90   87   88 1   
    91   87   89 1   
    92   87   93 1   
    93   88   90 1   
    94   88   94 1   
    95   88   95 1   
    96   89   96 1   
    97   89   97 1   
    98   89   98 1   
    99   90   99 1   
   100   90  100 1   
   101   90  101 1   
   102  102  103 1   
   103  102  110 1   
   104  103  104 1   
   105  103  106 1   
   106  103  111 1   
   107  104  105 2   
   108  104  114 1   
   109  106  107 1   
   110  106  112 1   
   111  106  113 1   
   112  107  108 1   
   113  107  109 1   
   114  114  115 1   
   115  114  125 1   
   116  115  116 1   
   117  115  118 1   
   118  115  126 1   
   119  116  117 2   
   120  116  134 1   
   121  118  119 1   
   122  118  127 1   
   123  118  128 1   
   124  119  120 ar  
   125  119  121 ar  
   126  120  122 ar  
   127  120  129 1   
   128  121  123 ar  
   129  121  130 1   
   130  122  124 ar  
   131  122  131 1   
   132  123  124 ar  
   133  123  132 1   
   134  124  133 1   
   135  134  135 1   
   136  134  140 1   
   137  135  136 1   
   138  135  138 1   
   139  135  141 1   
   140  136  137 2   
   141  136  148 1   
   142  138  139 1   
   143  138  142 1   
   144  138  143 1   
   145  139  140 1   
   146  139  144 1   
   147  139  145 1   
   148  140  146 1   
   149  140  147 1   
   150  148  149 1   
   151  148  157 1   
   152  149  150 1   
   153  149  152 1   
   154  149  158 1   
   155  150  151 2   
   156  150  163 1   
   157  152  153 1   
   158  152  159 1   
   159  152  160 1   
   160  153  154 1   
   161  153  161 1   
   162  153  162 1   
   163  154  155 1   
   164  154  156 1   
   165  163  164 1   
   166  163  168 1   
   167  164  165 1   
   168  164  166 1   
   169  164  167 1   
   170  170  171 1   
   171  170  172 1   
   172  173  174 1   
   173  173  175 1   
   174  176  177 1   
   175  176  178 1   
@<TRIPOS>SUBSTRUCTURE
     1 MOL         1 TEMP              0 ****  ****    0 ROOT
