@<TRIPOS>MOLECULE
MOL
  189   185     1     0     0
SMALL
resp


@<TRIPOS>ATOM
      1 C1         11.2720    5.4130   -3.0980 c3        1 MOL     -0.371789
      2 C2         10.9240    4.1560   -2.2290 c         1 MOL      0.827143
      3 O1         10.7870    3.0430   -2.7580 o         1 MOL     -0.585744
      4 H1         10.5860    6.2250   -2.8540 hc        1 MOL      0.093388
      5 H2         12.2950    5.7280   -2.8910 hc        1 MOL      0.093388
      6 H3         11.1760    5.1630   -4.1550 hc        1 MOL      0.093388
      7 N1         10.6930    4.3740   -0.9030 n         1 MOL     -0.838932
      8 C3         10.4810    3.3030    0.0510 c3        1 MOL     -0.038137
      9 C4          9.2830    2.3980   -0.1210 c         1 MOL      0.451978
     10 O2          8.1970    2.9570   -0.2550 o         1 MOL     -0.436654
     11 C5         10.5720    3.7440    1.5240 c3        1 MOL     -0.065049
     12 C6          9.7570    5.0230    1.7610 c         1 MOL      0.735362
     13 O3          8.5500    4.9670    1.5900 o         1 MOL     -0.726831
     14 O4         10.2990    6.1130    1.8940 o         1 MOL     -0.726831
     15 H4         10.9340    5.3060   -0.5850 hn        1 MOL      0.438721
     16 H5         11.2610    2.6140   -0.2540 h1        1 MOL      0.082560
     17 H6         11.6280    3.9670    1.7000 hc        1 MOL      0.042415
     18 H7         10.3580    2.9170    2.1980 hc        1 MOL      0.042415
     19 N2          9.4480    1.0540   -0.1150 n         1 MOL     -0.291913
     20 C7          8.3520    0.1380   -0.6660 c3        1 MOL     -0.175346
     21 C8          7.2070   -0.0210    0.3040 c         1 MOL      0.850501
     22 O5          7.3470   -0.1410    1.4850 o         1 MOL     -0.619515
     23 C9          8.8640   -1.2580   -1.0110 c3        1 MOL     -0.297936
     24 C10         9.3740   -2.0150    0.2040 c3        1 MOL      0.274382
     25 C11        10.4840   -2.8990   -0.1570 c3        1 MOL     -0.177947
     26 C12        10.4690   -4.1440    0.7670 c3        1 MOL      0.089136
     27 N3         11.6940   -5.0330    0.5120 n4        1 MOL     -0.384254
     28 H8         10.3750    0.6910    0.0380 hn        1 MOL      0.261862
     29 H9          7.9200    0.5380   -1.5850 h1        1 MOL      0.189581
     30 H10         9.7190   -1.1710   -1.6830 hc        1 MOL      0.101491
     31 H11         8.1290   -1.9190   -1.4780 hc        1 MOL      0.101491
     32 H12         8.5500   -2.5800    0.6340 hc        1 MOL     -0.034641
     33 H13         9.7740   -1.2430    0.8600 hc        1 MOL     -0.034641
     34 H14        11.4840   -2.4870   -0.0830 hc        1 MOL      0.056721
     35 H15        10.2490   -3.3730   -1.1130 hc        1 MOL      0.056721
     36 H16         9.5240   -4.6660    0.6380 hx        1 MOL      0.083687
     37 H17        10.5970   -3.7500    1.7780 hx        1 MOL      0.083687
     38 H18        11.6950   -5.4140   -0.4210 hn        1 MOL      0.292871
     39 H19        12.5320   -4.5090    0.7310 hn        1 MOL      0.292871
     40 H20        11.7520   -5.8400    1.1120 hn        1 MOL      0.292871
     41 N4          5.9680   -0.0790   -0.2100 n         1 MOL     -0.748953
     42 C13         4.7220   -0.2090    0.4760 c3        1 MOL      0.614355
     43 C14         3.7360   -0.7540   -0.5510 c         1 MOL      0.337369
     44 O6          3.9070   -0.6360   -1.7810 o         1 MOL     -0.498893
     45 C15         4.1870    1.1830    0.9300 c3        1 MOL     -0.060864
     46 C16         5.0640    2.3830    0.5760 c         1 MOL      0.670316
     47 O7          5.2270    2.6450   -0.6390 o         1 MOL     -0.772769
     48 O8          5.5950    3.1290    1.4520 o         1 MOL     -0.772769
     49 H21         5.9520    0.0890   -1.2020 hn        1 MOL      0.269333
     50 H22         4.9270   -0.9550    1.2390 h1        1 MOL     -0.039104
     51 H23         3.9860    1.1070    1.9960 hc        1 MOL      0.008931
     52 H24         3.2450    1.4260    0.4520 hc        1 MOL      0.008931
     53 N5          2.6670   -1.4680   -0.0770 n         1 MOL     -0.399573
     54 C17         2.3150   -1.6530    1.3720 c3        1 MOL     -0.178256
     55 C18         2.1010   -3.1440    1.7680 c         1 MOL      0.681244
     56 O9          2.3090   -4.0820    0.9830 o         1 MOL     -0.550641
     57 H25         2.1230   -1.9970   -0.7540 hn        1 MOL      0.308786
     58 H26         1.4280   -1.0870    1.6190 h1        1 MOL      0.076762
     59 H27         3.0430   -1.2880    2.1000 h1        1 MOL      0.076762
     60 N6          1.6930   -3.5110    2.9900 n         1 MOL     -0.473658
     61 C19         1.5610   -4.8630    3.5300 c3        1 MOL      0.015293
     62 C20         0.5040   -5.6470    2.8630 c         1 MOL      0.576228
     63 O10        -0.6670   -5.5080    3.0810 o         1 MOL     -0.508012
     64 C21         1.2250   -4.8000    5.1100 c3        1 MOL     -0.098096
     65 C22         1.5010   -6.0530    5.8940 c         1 MOL      0.736664
     66 O11         2.0630   -6.9630    5.2760 o         1 MOL     -0.677784
     67 O12         1.2360   -5.9940    7.1160 o         1 MOL     -0.677784
     68 H28         1.2990   -2.7360    3.5000 hn        1 MOL      0.286974
     69 H29         2.4920   -5.4130    3.4360 h1        1 MOL      0.047383
     70 H30         0.1650   -4.5510    5.1650 hc        1 MOL      0.026433
     71 H31         1.8370   -3.9930    5.5090 hc        1 MOL      0.026433
     72 N7          0.8990   -6.6230    2.0530 n         1 MOL     -0.478672
     73 C23        -0.0100   -7.3530    1.1570 c3        1 MOL     -0.023086
     74 C24        -0.3730   -6.6020   -0.1540 c         1 MOL      0.412395
     75 O13        -1.0490   -7.1220   -1.0190 o         1 MOL     -0.561802
     76 H32         1.8870   -6.6570    1.8240 hn        1 MOL      0.292250
     77 H33        -0.9930   -7.4040    1.6200 h1        1 MOL      0.106056
     78 H34         0.2660   -8.3900    0.9710 h1        1 MOL      0.106056
     79 N8          0.0180   -5.3250   -0.2000 n         1 MOL     -0.215331
     80 C25        -0.2410   -4.4400   -1.4220 c3        1 MOL      0.014628
     81 C26        -0.6820   -3.0240   -1.0750 c         1 MOL      0.329021
     82 O14        -0.6750   -2.6830    0.1110 o         1 MOL     -0.512052
     83 C27         1.0630   -4.4980   -2.2290 c3        1 MOL      0.317341
     84 C28         1.0580   -4.2210   -3.7290 c3        1 MOL     -0.323670
     85 O15         2.1220   -3.7540   -1.7710 oh        1 MOL     -0.553824
     86 H35         0.6780   -5.0730    0.5250 hn        1 MOL      0.138248
     87 H36        -1.0520   -4.8840   -1.9900 h1        1 MOL      0.048918
     88 H37         1.3880   -5.5390   -2.1840 h1        1 MOL      0.017334
     89 H38         2.2260   -4.0630   -0.8720 ho        1 MOL      0.324218
     90 H39         0.3500   -4.8530   -4.2640 hc        1 MOL      0.077647
     91 H40         0.7170   -3.1970   -3.8960 hc        1 MOL      0.077647
     92 H41         2.0170   -4.2940   -4.2530 hc        1 MOL      0.077647
     93 N9         -1.1340   -2.1700   -2.0120 n         1 MOL      0.051479
     94 C29        -1.7380   -0.8000   -1.6980 c3        1 MOL     -0.258108
     95 C30        -3.2450   -0.7810   -1.7060 c         1 MOL      0.589613
     96 O16        -3.8810    0.1310   -1.2000 o         1 MOL     -0.511786
     97 C31        -1.0510    0.1860   -2.6650 c3        1 MOL      0.121121
     98 C32        -1.1440   -0.1860   -4.1560 c3        1 MOL      0.057175
     99 C33         0.5110    0.1800   -2.1900 c3        1 MOL     -0.293562
    100 C34        -0.6490    0.9610   -4.9740 c3        1 MOL     -0.047079
    101 H42        -1.1090   -2.5560   -2.9470 hn        1 MOL      0.133132
    102 H43        -1.3330   -0.4840   -0.7400 h1        1 MOL      0.162256
    103 H44        -1.3800    1.2070   -2.5180 hc        1 MOL      0.026703
    104 H45        -2.2130   -0.3270   -4.3020 hc        1 MOL     -0.042225
    105 H46        -0.6310   -1.1210   -4.3630 hc        1 MOL     -0.042225
    106 H47         0.9070    1.1210   -2.5860 hc        1 MOL      0.091874
    107 H48         0.6360    0.1170   -1.1160 hc        1 MOL      0.091874
    108 H49         0.9810   -0.6720   -2.6760 hc        1 MOL      0.091874
    109 H50        -1.1990    1.8890   -4.8540 hc        1 MOL      0.014395
    110 H51         0.3680    1.3030   -4.7910 hc        1 MOL      0.014395
    111 H52        -0.7260    0.7560   -6.0480 hc        1 MOL      0.014395
    112 N10        -3.8510   -1.9470   -2.0580 n         1 MOL     -0.466791
    113 C35        -5.2270   -2.2780   -1.6880 c3        1 MOL      0.019453
    114 C36        -6.2500   -1.6060   -2.6300 c         1 MOL      0.481797
    115 O17        -5.9290   -1.2830   -3.8040 o         1 MOL     -0.509863
    116 C37        -5.4100   -3.8600   -1.6980 c3        1 MOL      0.245368
    117 C38        -4.1900   -4.7360   -1.3800 c3        1 MOL     -0.070648
    118 O18        -6.4080   -4.2720   -0.7370 oh        1 MOL     -0.644289
    119 H53        -3.2470   -2.6310   -2.4910 hn        1 MOL      0.222290
    120 H54        -5.4450   -1.9890   -0.6630 h1        1 MOL      0.142215
    121 H55        -5.6830   -4.2340   -2.6890 h1        1 MOL      0.010521
    122 H56        -6.8230   -5.0410   -1.1320 ho        1 MOL      0.406061
    123 H57        -4.3210   -5.7570   -1.7460 hc        1 MOL      0.043246
    124 H58        -3.3060   -4.2910   -1.8310 hc        1 MOL      0.043246
    125 H59        -4.0150   -4.8740   -0.3130 hc        1 MOL      0.043246
    126 N11        -7.4610   -1.4870   -2.2010 n         1 MOL     -0.455138
    127 C39        -8.6020   -0.7750   -2.7950 c3        1 MOL      0.084843
    128 C40        -8.8560    0.5420   -2.2120 c         1 MOL      0.502240
    129 O19        -9.3620    1.4470   -2.9910 o         1 MOL     -0.584906
    130 C41        -9.8210   -1.6590   -2.7210 c3        1 MOL      0.285013
    131 C42       -10.3110   -2.0740   -1.3110 c3        1 MOL     -0.334755
    132 O20        -9.6680   -2.8690   -3.4680 oh        1 MOL     -0.603012
    133 H60        -7.4700   -1.6360   -1.2090 hn        1 MOL      0.246667
    134 H61        -8.3720   -0.6450   -3.8560 h1        1 MOL      0.097324
    135 H62       -10.5960   -1.0410   -3.1650 h1        1 MOL     -0.016505
    136 H63        -9.8120   -2.7630   -4.4150 ho        1 MOL      0.403977
    137 H64        -9.7990   -2.9590   -0.9470 hc        1 MOL      0.102976
    138 H65       -10.3530   -1.2520   -0.5940 hc        1 MOL      0.102976
    139 H66       -11.2570   -2.5920   -1.4620 hc        1 MOL      0.102976
    140 N12        -8.4580    0.9240   -0.9540 n         1 MOL     -0.201233
    141 C43        -8.6970    2.1590   -0.1870 c3        1 MOL     -0.114246
    142 C44        -7.5720    2.5050    0.7700 c         1 MOL      0.525273
    143 O21        -6.8510    1.6430    1.2390 o         1 MOL     -0.477674
    144 C45       -10.0480    1.9250    0.5990 c3        1 MOL     -0.078373
    145 C46       -11.2220    1.9000   -0.3740 c3        1 MOL     -0.042902
    146 C47       -12.5890    2.0680    0.3790 c3        1 MOL     -0.082715
    147 C48       -12.9010    0.9100    1.3270 c3        1 MOL      0.157042
    148 N13       -14.1230    1.1570    2.1560 n4        1 MOL     -0.275384
    149 H67        -7.9460    0.1590   -0.5480 hn        1 MOL      0.164565
    150 H68        -8.9020    3.0300   -0.8020 h1        1 MOL      0.120970
    151 H69       -10.2250    2.7540    1.2890 hc        1 MOL      0.050142
    152 H70       -10.0810    0.9630    1.1060 hc        1 MOL      0.050142
    153 H71       -11.1970    1.0460   -1.0510 hc        1 MOL      0.055461
    154 H72       -11.2380    2.8360   -0.9480 hc        1 MOL      0.055461
    155 H73       -13.3610    2.2040   -0.3800 hc        1 MOL      0.043427
    156 H74       -12.5240    2.9980    0.9640 hc        1 MOL      0.043427
    157 H75       -11.9970    0.9030    1.9390 hx        1 MOL      0.017704
    158 H76       -12.9530    0.0140    0.7110 hx        1 MOL      0.017704
    159 H77       -14.9810    1.1770    1.6220 hn        1 MOL      0.258416
    160 H78       -14.2690    0.3960    2.8050 hn        1 MOL      0.258416
    161 H79       -14.0560    2.0200    2.6730 hn        1 MOL      0.258416
    162 N14        -7.3880    3.8020    1.0750 n         1 MOL     -0.403486
    163 C49        -6.4530    4.2810    2.1860 c3        1 MOL      0.162756
    164 C50        -4.9150    4.3060    1.8920 c         1 MOL      0.390789
    165 O22        -4.1600    3.7120    2.7100 o         1 MOL     -0.525920
    166 C51        -6.9450    5.7090    2.5460 c3        1 MOL      0.092020
    167 C52        -8.3620    5.7790    3.0660 c3        1 MOL     -0.285382
    168 C53        -8.7990    7.1380    3.6430 c         1 MOL      0.700881
    169 O23        -9.7820    7.7570    3.1680 o         1 MOL     -0.655282
    170 O24        -8.0720    7.7200    4.5100 o         1 MOL     -0.655282
    171 H80        -8.1900    4.3560    0.8200 hn        1 MOL      0.245651
    172 H81        -6.5550    3.6150    3.0450 h1        1 MOL      0.050386
    173 H82        -6.8480    6.4000    1.7140 hc        1 MOL      0.015024
    174 H83        -6.2560    6.1420    3.2740 hc        1 MOL      0.015024
    175 H84        -8.4620    5.0900    3.9060 hc        1 MOL      0.029028
    176 H85        -9.0840    5.6280    2.2670 hc        1 MOL      0.029028
    177 N15        -4.3780    4.7740    0.7600 n         1 MOL     -0.352285
    178 C54        -5.1030    5.4720   -0.3340 c3        1 MOL     -0.002514
    179 H86        -5.3960    6.4670    0.0010 h1        1 MOL      0.038945
    180 H87        -4.4530    5.5590   -1.2050 h1        1 MOL      0.038945
    181 H88        -5.9940    4.9030   -0.6010 h1        1 MOL      0.038945
    182 H89        -3.4030    4.5700    0.6070 hn        1 MOL      0.283871
    183 Ca1         6.5160    5.0450   -0.0710 Ca        1 MOL      1.613287
    184 O25         7.2120    4.7740   -2.5900 oh        1 MOL     -0.663923
    185 H90         7.3460    3.9480   -3.0500 ho        1 MOL      0.347268
    186 H91         7.1510    5.4330   -3.2820 ho        1 MOL      0.347268
    187 O26         3.9070    5.2320   -1.5680 oh        1 MOL     -0.663923
    188 H92         4.3810    6.0530   -1.7100 ho        1 MOL      0.347268
    189 H93         3.7540    5.2020   -0.6170 ho        1 MOL      0.347268
@<TRIPOS>BOND
     1    1    2 1   
     2    1    4 1   
     3    1    5 1   
     4    1    6 1   
     5    2    3 2   
     6    2    7 1   
     7    7    8 1   
     8    7   15 1   
     9    8    9 1   
    10    8   11 1   
    11    8   16 1   
    12    9   10 2   
    13    9   19 1   
    14   11   12 1   
    15   11   17 1   
    16   11   18 1   
    17   12   13 1   
    18   12   14 1   
    19   19   20 1   
    20   19   28 1   
    21   20   21 1   
    22   20   23 1   
    23   20   29 1   
    24   21   22 2   
    25   21   41 1   
    26   23   24 1   
    27   23   30 1   
    28   23   31 1   
    29   24   25 1   
    30   24   32 1   
    31   24   33 1   
    32   25   26 1   
    33   25   34 1   
    34   25   35 1   
    35   26   27 1   
    36   26   36 1   
    37   26   37 1   
    38   27   38 1   
    39   27   39 1   
    40   27   40 1   
    41   41   42 1   
    42   41   49 1   
    43   42   43 1   
    44   42   45 1   
    45   42   50 1   
    46   43   44 2   
    47   43   53 1   
    48   45   46 1   
    49   45   51 1   
    50   45   52 1   
    51   46   47 1   
    52   46   48 1   
    53   53   54 1   
    54   53   57 1   
    55   54   55 1   
    56   54   58 1   
    57   54   59 1   
    58   55   56 2   
    59   55   60 1   
    60   60   61 1   
    61   60   68 1   
    62   61   62 1   
    63   61   64 1   
    64   61   69 1   
    65   62   63 2   
    66   62   72 1   
    67   64   65 1   
    68   64   70 1   
    69   64   71 1   
    70   65   66 1   
    71   65   67 1   
    72   72   73 1   
    73   72   76 1   
    74   73   74 1   
    75   73   77 1   
    76   73   78 1   
    77   74   75 2   
    78   74   79 1   
    79   79   80 1   
    80   79   86 1   
    81   80   81 1   
    82   80   83 1   
    83   80   87 1   
    84   81   82 2   
    85   81   93 1   
    86   83   84 1   
    87   83   85 1   
    88   83   88 1   
    89   84   90 1   
    90   84   91 1   
    91   84   92 1   
    92   85   89 1   
    93   93   94 1   
    94   93  101 1   
    95   94   95 1   
    96   94   97 1   
    97   94  102 1   
    98   95   96 2   
    99   95  112 1   
   100   97   98 1   
   101   97   99 1   
   102   97  103 1   
   103   98  100 1   
   104   98  104 1   
   105   98  105 1   
   106   99  106 1   
   107   99  107 1   
   108   99  108 1   
   109  100  109 1   
   110  100  110 1   
   111  100  111 1   
   112  112  113 1   
   113  112  119 1   
   114  113  114 1   
   115  113  116 1   
   116  113  120 1   
   117  114  115 2   
   118  114  126 1   
   119  116  117 1   
   120  116  118 1   
   121  116  121 1   
   122  117  123 1   
   123  117  124 1   
   124  117  125 1   
   125  118  122 1   
   126  126  127 1   
   127  126  133 1   
   128  127  128 1   
   129  127  130 1   
   130  127  134 1   
   131  128  129 2   
   132  128  140 1   
   133  130  131 1   
   134  130  132 1   
   135  130  135 1   
   136  131  137 1   
   137  131  138 1   
   138  131  139 1   
   139  132  136 1   
   140  140  141 1   
   141  140  149 1   
   142  141  142 1   
   143  141  144 1   
   144  141  150 1   
   145  142  143 2   
   146  142  162 1   
   147  144  145 1   
   148  144  151 1   
   149  144  152 1   
   150  145  146 1   
   151  145  153 1   
   152  145  154 1   
   153  146  147 1   
   154  146  155 1   
   155  146  156 1   
   156  147  148 1   
   157  147  157 1   
   158  147  158 1   
   159  148  159 1   
   160  148  160 1   
   161  148  161 1   
   162  162  163 1   
   163  162  171 1   
   164  163  164 1   
   165  163  166 1   
   166  163  172 1   
   167  164  165 2   
   168  164  177 1   
   169  166  167 1   
   170  166  173 1   
   171  166  174 1   
   172  167  168 1   
   173  167  175 1   
   174  167  176 1   
   175  168  169 1   
   176  168  170 1   
   177  177  178 1   
   178  177  182 1   
   179  178  179 1   
   180  178  180 1   
   181  178  181 1   
   182  184  185 1   
   183  184  186 1   
   184  187  188 1   
   185  187  189 1   
@<TRIPOS>SUBSTRUCTURE
     1 MOL         1 TEMP              0 ****  ****    0 ROOT
