@<TRIPOS>MOLECULE
MOL
  182   178     1     0     0
SMALL
resp


@<TRIPOS>ATOM
      1 C1         -5.5870    2.7680   -1.3690 c3        1 MOL     -0.367242
      2 C2         -6.8160    2.6540   -0.3960 c         1 MOL      0.684513
      3 O1         -6.7130    2.1920    0.7580 o         1 MOL     -0.524750
      4 H1         -4.7930    3.3380   -0.8860 hc        1 MOL      0.104866
      5 H2         -5.2200    1.7700   -1.6090 hc        1 MOL      0.104866
      6 H3         -5.8930    3.2740   -2.2840 hc        1 MOL      0.104866
      7 N1         -7.9890    3.1250   -0.8320 n         1 MOL     -0.500467
      8 C3         -9.2340    3.0150   -0.0960 c3        1 MOL     -0.071624
      9 C4         -9.6900    1.6630    0.4250 c         1 MOL      0.546821
     10 O2        -10.4670    1.5320    1.4040 o         1 MOL     -0.533927
     11 C5         -9.2230    4.1200    0.8960 c3        1 MOL     -0.135272
     12 C6         -8.8200    5.5110    0.3900 c         1 MOL      0.694756
     13 O3         -8.1780    6.2760    1.1750 o         1 MOL     -0.666643
     14 O4         -9.3340    5.8780   -0.7140 o         1 MOL     -0.666643
     15 H4         -8.1090    3.5200   -1.7520 hn        1 MOL      0.293404
     16 H5        -10.0890    3.3420   -0.6810 h1        1 MOL      0.087876
     17 H6         -8.5350    3.9280    1.7250 hc        1 MOL      0.055698
     18 H7        -10.2290    4.2030    1.3140 hc        1 MOL      0.055698
     19 N2         -9.1720    0.6370   -0.2690 n         1 MOL     -0.374557
     20 C7         -9.3120   -0.8190   -0.0690 c3        1 MOL      0.139252
     21 C8         -8.0040   -1.6690    0.0090 c         1 MOL      0.446481
     22 O5         -8.0440   -2.8460   -0.1960 o         1 MOL     -0.543791
     23 C9        -10.2950   -1.3680   -1.1200 c3        1 MOL     -0.211068
     24 C10       -11.7520   -0.9670   -0.8820 c3        1 MOL      0.169827
     25 C11       -12.8690   -1.7470   -1.6890 c3        1 MOL     -0.191756
     26 C12       -13.2410   -3.1300   -1.0940 c3        1 MOL     -0.055790
     27 N3        -12.5500   -4.3050   -1.7190 n4        1 MOL     -0.297404
     28 H8         -8.5740    0.8910   -1.0400 hn        1 MOL      0.215436
     29 H9         -9.7810   -0.9330    0.9070 h1        1 MOL      0.065724
     30 H10       -10.2660   -2.4550   -1.0200 hc        1 MOL      0.047105
     31 H11       -10.0980   -0.9580   -2.1140 hc        1 MOL      0.047105
     32 H12       -11.8410    0.0670   -1.2080 hc        1 MOL      0.002779
     33 H13       -11.9290   -0.8960    0.1940 hc        1 MOL      0.002779
     34 H14       -12.4920   -1.8630   -2.7070 hc        1 MOL      0.083546
     35 H15       -13.8230   -1.2280   -1.6110 hc        1 MOL      0.083546
     36 H16       -14.3260   -3.1540   -1.1670 hx        1 MOL      0.118588
     37 H17       -13.0160   -3.0990   -0.0330 hx        1 MOL      0.118588
     38 H18       -11.5470   -4.2580   -1.7910 hn        1 MOL      0.281356
     39 H19       -12.8860   -5.1390   -1.2620 hn        1 MOL      0.281356
     40 H20       -12.7900   -4.2050   -2.6990 hn        1 MOL      0.281356
     41 N4         -6.8290   -1.0340    0.2690 n         1 MOL     -0.379312
     42 C13        -5.5150   -1.6190    0.4370 c3        1 MOL      0.148724
     43 C14        -4.9750   -1.4250    1.8720 c         1 MOL      0.404460
     44 O6         -4.2790   -0.4490    2.1130 o         1 MOL     -0.454093
     45 C15        -4.5600   -1.1200   -0.7110 c3        1 MOL     -0.165937
     46 C16        -3.2440   -1.8120   -0.6560 c         1 MOL      0.936861
     47 O7         -2.4040   -1.5320   -1.5650 o         1 MOL     -0.848948
     48 O8         -2.9360   -2.6010    0.2670 o         1 MOL     -0.848948
     49 H21        -6.9310   -0.0290    0.3260 hn        1 MOL      0.206621
     50 H22        -5.5450   -2.7090    0.3390 h1        1 MOL      0.030849
     51 H23        -4.4160   -0.0540   -0.5940 hc        1 MOL      0.022895
     52 H24        -5.0340   -1.3210   -1.6700 hc        1 MOL      0.022895
     53 N5         -5.2500   -2.3850    2.7420 n         1 MOL     -0.269908
     54 C17        -4.7130   -2.5270    4.1380 c3        1 MOL     -0.381968
     55 C18        -3.1670   -2.5930    4.2750 c         1 MOL      0.609132
     56 O9         -2.6560   -2.6950    5.3830 o         1 MOL     -0.566355
     57 H25        -5.9960   -3.0200    2.4850 hn        1 MOL      0.260568
     58 H26        -5.1150   -3.4690    4.5250 h1        1 MOL      0.177504
     59 H27        -5.0160   -1.6130    4.6360 h1        1 MOL      0.177504
     60 N6         -2.4450   -2.5140    3.1990 n         1 MOL     -0.418569
     61 C19        -0.9990   -2.5620    3.0830 c3        1 MOL      0.243397
     62 C20        -0.4560   -1.5980    1.9280 c         1 MOL      0.628966
     63 O10         0.2390   -2.0150    1.0400 o         1 MOL     -0.598383
     64 C21        -0.6370   -4.0480    2.9250 c3        1 MOL     -0.495384
     65 C22        -1.0840   -4.7750    1.6330 c         1 MOL      0.753748
     66 N7         -2.0490   -5.5960    1.7250 n         1 MOL     -0.718079
     67 O11        -0.4960   -4.6670    0.5140 o         1 MOL     -0.633594
     68 H28        -2.9460   -2.5620    2.3280 hn        1 MOL      0.260124
     69 H29        -0.3890   -2.1390    3.8830 h1        1 MOL      0.056311
     70 H30        -0.9610   -4.5810    3.8130 hc        1 MOL      0.139019
     71 H31         0.4560   -4.0780    2.9630 hc        1 MOL      0.139019
     72 H32        -2.5570   -5.6480    2.6030 hn        1 MOL      0.357554
     73 H33        -2.3360   -6.1660    0.9540 hn        1 MOL      0.357554
     74 N8         -0.9060   -0.4250    1.9320 n         1 MOL     -0.563339
     75 C23        -0.8080    0.6550    0.9130 c3        1 MOL      0.021625
     76 C24         0.4170    1.5440    0.9550 c         1 MOL      0.738733
     77 O12         1.0010    1.7820    1.9960 o         1 MOL     -0.558736
     78 H34        -1.5530   -0.3130    2.7000 hn        1 MOL      0.312690
     79 H35        -1.6470    1.3460    1.0650 h1        1 MOL      0.074545
     80 H36        -0.8130    0.2640   -0.1070 h1        1 MOL      0.074545
     81 N9          0.7470    2.1320   -0.2320 n         1 MOL     -0.596064
     82 C25         1.9880    2.9030   -0.4850 c3        1 MOL      0.020745
     83 C26         3.1380    1.9980   -0.9640 c         1 MOL      0.606302
     84 O13         2.9870    0.8570   -1.3660 o         1 MOL     -0.505392
     85 C27         1.5080    3.8380   -1.5850 c3        1 MOL      0.017297
     86 C28         0.5430    5.0090   -1.1670 ca        1 MOL      0.006914
     87 C29        -0.7610    5.1490   -1.7560 ca        1 MOL     -0.141323
     88 C30         1.0610    6.0010   -0.2840 ca        1 MOL     -0.141323
     89 C31        -1.6310    6.1390   -1.1980 ca        1 MOL     -0.289218
     90 C32         0.2460    7.1290    0.0150 ca        1 MOL     -0.289218
     91 C33        -1.1430    7.1960   -0.3900 ca        1 MOL      0.366136
     92 O14        -1.9450    8.1450   -0.0020 oh        1 MOL     -0.402581
     93 H37         0.0880    2.0700   -0.9980 hn        1 MOL      0.267502
     94 H38         2.2380    3.5620    0.3450 h1        1 MOL      0.080156
     95 H39         1.0600    3.2650   -2.3870 hc        1 MOL      0.000918
     96 H40         2.3470    4.3170   -2.0980 hc        1 MOL      0.000918
     97 H41        -1.0480    4.3590   -2.4390 ha        1 MOL      0.126936
     98 H42         2.1070    5.9540   -0.0300 ha        1 MOL      0.126936
     99 H43        -2.6150    6.2390   -1.6310 ha        1 MOL      0.152262
    100 H44         0.6090    7.9570    0.6060 ha        1 MOL      0.152262
    101 H45        -1.4010    8.7120    0.5400 ho        1 MOL      0.342572
    102 N10         4.3200    2.5540   -0.8940 n         1 MOL     -0.531355
    103 C34         5.5670    1.8580   -1.2800 c3        1 MOL     -0.083828
    104 C35         6.7130    2.0580   -0.2500 c         1 MOL      0.419681
    105 O15         7.8020    1.4710   -0.4760 o         1 MOL     -0.484004
    106 C36         5.8770    2.3790   -2.7530 c3        1 MOL     -0.008909
    107 C37         5.7910    3.9450   -2.9720 c3        1 MOL      0.153823
    108 C38         4.9950    1.7190   -3.8640 c3        1 MOL     -0.195503
    109 C39         6.6720    4.7680   -2.0050 c3        1 MOL     -0.249131
    110 H46         4.2410    3.5110   -0.5790 hn        1 MOL      0.280570
    111 H47         5.3750    0.8090   -1.4880 h1        1 MOL      0.231880
    112 H48         6.8980    2.1780   -3.0760 hc        1 MOL      0.054342
    113 H49         4.7870    4.3680   -2.9410 hc        1 MOL     -0.012565
    114 H50         6.0950    4.2250   -3.9740 hc        1 MOL     -0.012565
    115 H51         5.0130    0.6230   -3.8790 hc        1 MOL      0.053585
    116 H52         4.0350    2.2140   -3.7300 hc        1 MOL      0.053585
    117 H53         5.2930    2.0150   -4.8670 hc        1 MOL      0.053585
    118 H54         6.5350    5.8300   -2.1950 hc        1 MOL      0.055153
    119 H55         6.4070    4.5070   -0.9780 hc        1 MOL      0.055153
    120 H56         7.6980    4.4820   -2.2490 hc        1 MOL      0.055153
    121 N11         6.4120    2.6980    0.8910 n         1 MOL     -0.192432
    122 C40         7.4190    3.1440    1.8970 c3        1 MOL     -0.154575
    123 C41         8.4810    2.0860    2.4060 c         1 MOL      0.480264
    124 O16         8.3270    1.6950    3.5530 o         1 MOL     -0.495864
    125 C42         8.1060    4.4390    1.4720 c3        1 MOL      0.135227
    126 O17         8.8600    4.2340    0.3240 oh        1 MOL     -0.564895
    127 H57         5.4840    3.0410    1.0520 hn        1 MOL      0.245727
    128 H58         6.6630    3.3010    2.6680 h1        1 MOL      0.117312
    129 H59         8.7830    4.8270    2.2370 h1        1 MOL      0.030264
    130 H60         7.4590    5.2870    1.2510 h1        1 MOL      0.030264
    131 H61         9.3090    5.0530    0.1140 ho        1 MOL      0.408616
    132 N12         9.5580    1.7050    1.7140 n         1 MOL     -0.314121
    133 C43        10.3760    0.5070    2.0130 c3        1 MOL      0.223153
    134 C44         9.5640   -0.7550    2.2610 c         1 MOL      0.435264
    135 O18         9.8640   -1.5160    3.2040 o         1 MOL     -0.482711
    136 C45        11.4640    0.7750    3.0650 c3        1 MOL     -0.389921
    137 H62         9.6440    2.2760    0.8920 hn        1 MOL      0.241301
    138 H63        10.9280    0.3520    1.0850 h1        1 MOL      0.042635
    139 H64        11.9610   -0.1620    3.3060 hc        1 MOL      0.107712
    140 H65        12.1060    1.5930    2.7330 hc        1 MOL      0.107712
    141 H66        10.9900    1.0570    4.0140 hc        1 MOL      0.107712
    142 N13         8.4710   -0.8870    1.4560 n         1 MOL     -0.568353
    143 C46         7.5030   -1.9650    1.4860 c3        1 MOL      0.519653
    144 C47         7.1580   -2.4190    0.0460 c         1 MOL      0.358378
    145 O19         7.2740   -1.6580   -0.9390 o         1 MOL     -0.525139
    146 C48         6.2690   -1.5160    2.2100 c3        1 MOL     -0.174515
    147 H67         8.4100   -0.1740    0.7520 hn        1 MOL      0.251444
    148 H68         7.9770   -2.8130    1.9720 h1        1 MOL     -0.065311
    149 H69         5.5680   -2.3470    2.1160 hc        1 MOL      0.042846
    150 H70         6.5670   -1.4260    3.2570 hc        1 MOL      0.042846
    151 H71         5.9600   -0.5590    1.7970 hc        1 MOL      0.042846
    152 N14         6.8480   -3.6710   -0.1080 n         1 MOL     -0.411156
    153 C49         6.4540   -4.3300   -1.3310 c3        1 MOL      0.069371
    154 C50         7.5060   -4.3860   -2.4410 c         1 MOL      0.486687
    155 O20         7.8890   -5.5180   -2.6650 o         1 MOL     -0.549269
    156 C51         5.1390   -3.8910   -1.9170 c3        1 MOL     -0.037416
    157 C52         3.9360   -4.2510   -0.9530 c3        1 MOL     -0.004420
    158 C53         2.5260   -3.7330   -1.2790 c         1 MOL      0.680082
    159 O21         1.7010   -4.5820   -1.5780 o         1 MOL     -0.757386
    160 O22         2.1460   -2.5540   -1.2260 o         1 MOL     -0.757386
    161 H72         7.0290   -4.2440    0.7140 hn        1 MOL      0.284182
    162 H73         6.3510   -5.3570   -0.9960 h1        1 MOL      0.066388
    163 H74         5.0670   -4.5030   -2.8210 hc        1 MOL      0.026693
    164 H75         5.1500   -2.8270   -2.1330 hc        1 MOL      0.026693
    165 H76         4.1400   -3.8070    0.0100 hc        1 MOL     -0.004619
    166 H77         3.8840   -5.3300   -0.7970 hc        1 MOL     -0.004619
    167 N15         8.1160   -3.3270   -2.9850 n         1 MOL     -0.367426
    168 C54         8.9390   -3.2450   -4.2930 c3        1 MOL     -0.001391
    169 H78         9.8770   -2.7250   -4.0990 h1        1 MOL      0.055904
    170 H79         9.1490   -4.2510   -4.6540 h1        1 MOL      0.055904
    171 H80         8.3710   -2.6990   -5.0470 h1        1 MOL      0.055904
    172 H81         7.7370   -2.4720   -2.6160 hn        1 MOL      0.266218
    173 Ca1        -0.4010   -2.9230   -1.3370 Ca        1 MOL      1.801576
    174 O23         0.6970   -0.4420   -2.3070 oh        1 MOL     -0.837092
    175 H82         1.5860   -0.2990   -1.9790 ho        1 MOL      0.410749
    176 H83         0.3600    0.4440   -2.4800 ho        1 MOL      0.410749
    177 O24        -2.2900   -4.5050   -2.0470 oh        1 MOL     -0.837092
    178 H84        -2.0290   -5.2300   -2.6220 ho        1 MOL      0.410749
    179 H85        -3.2160   -4.3770   -2.2530 ho        1 MOL      0.410749
    180 O25        -0.6080   -3.1660   -4.0510 oh        1 MOL     -0.837092
    181 H86         0.0070   -2.7360   -4.6450 ho        1 MOL      0.410749
    182 H87        -1.3810   -3.3320   -4.5940 ho        1 MOL      0.410749
@<TRIPOS>BOND
     1    1    2 1   
     2    1    4 1   
     3    1    5 1   
     4    1    6 1   
     5    2    3 2   
     6    2    7 1   
     7    7    8 1   
     8    7   15 1   
     9    8    9 1   
    10    8   11 1   
    11    8   16 1   
    12    9   10 2   
    13    9   19 1   
    14   11   12 1   
    15   11   17 1   
    16   11   18 1   
    17   12   13 1   
    18   12   14 1   
    19   19   20 1   
    20   19   28 1   
    21   20   21 1   
    22   20   23 1   
    23   20   29 1   
    24   21   22 2   
    25   21   41 1   
    26   23   24 1   
    27   23   30 1   
    28   23   31 1   
    29   24   25 1   
    30   24   32 1   
    31   24   33 1   
    32   25   26 1   
    33   25   34 1   
    34   25   35 1   
    35   26   27 1   
    36   26   36 1   
    37   26   37 1   
    38   27   38 1   
    39   27   39 1   
    40   27   40 1   
    41   41   42 1   
    42   41   49 1   
    43   42   43 1   
    44   42   45 1   
    45   42   50 1   
    46   43   44 2   
    47   43   53 1   
    48   45   46 1   
    49   45   51 1   
    50   45   52 1   
    51   46   47 1   
    52   46   48 1   
    53   53   54 1   
    54   53   57 1   
    55   54   55 1   
    56   54   58 1   
    57   54   59 1   
    58   55   56 2   
    59   55   60 1   
    60   60   61 1   
    61   60   68 1   
    62   61   62 1   
    63   61   64 1   
    64   61   69 1   
    65   62   63 2   
    66   62   74 1   
    67   64   65 1   
    68   64   70 1   
    69   64   71 1   
    70   65   66 1   
    71   65   67 2   
    72   66   72 1   
    73   66   73 1   
    74   74   75 1   
    75   74   78 1   
    76   75   76 1   
    77   75   79 1   
    78   75   80 1   
    79   76   77 2   
    80   76   81 1   
    81   81   82 1   
    82   81   93 1   
    83   82   83 1   
    84   82   85 1   
    85   82   94 1   
    86   83   84 2   
    87   83  102 1   
    88   85   86 1   
    89   85   95 1   
    90   85   96 1   
    91   86   87 ar  
    92   86   88 ar  
    93   87   89 ar  
    94   87   97 1   
    95   88   90 ar  
    96   88   98 1   
    97   89   91 ar  
    98   89   99 1   
    99   90   91 ar  
   100   90  100 1   
   101   91   92 1   
   102   92  101 1   
   103  102  103 1   
   104  102  110 1   
   105  103  104 1   
   106  103  106 1   
   107  103  111 1   
   108  104  105 2   
   109  104  121 1   
   110  106  107 1   
   111  106  108 1   
   112  106  112 1   
   113  107  109 1   
   114  107  113 1   
   115  107  114 1   
   116  108  115 1   
   117  108  116 1   
   118  108  117 1   
   119  109  118 1   
   120  109  119 1   
   121  109  120 1   
   122  121  122 1   
   123  121  127 1   
   124  122  123 1   
   125  122  125 1   
   126  122  128 1   
   127  123  124 2   
   128  123  132 1   
   129  125  126 1   
   130  125  129 1   
   131  125  130 1   
   132  126  131 1   
   133  132  133 1   
   134  132  137 1   
   135  133  134 1   
   136  133  136 1   
   137  133  138 1   
   138  134  135 2   
   139  134  142 1   
   140  136  139 1   
   141  136  140 1   
   142  136  141 1   
   143  142  143 1   
   144  142  147 1   
   145  143  144 1   
   146  143  146 1   
   147  143  148 1   
   148  144  145 2   
   149  144  152 1   
   150  146  149 1   
   151  146  150 1   
   152  146  151 1   
   153  152  153 1   
   154  152  161 1   
   155  153  154 1   
   156  153  156 1   
   157  153  162 1   
   158  154  155 2   
   159  154  167 1   
   160  156  157 1   
   161  156  163 1   
   162  156  164 1   
   163  157  158 1   
   164  157  165 1   
   165  157  166 1   
   166  158  159 1   
   167  158  160 1   
   168  167  168 1   
   169  167  172 1   
   170  168  169 1   
   171  168  170 1   
   172  168  171 1   
   173  174  175 1   
   174  174  176 1   
   175  177  178 1   
   176  177  179 1   
   177  180  181 1   
   178  180  182 1   
@<TRIPOS>SUBSTRUCTURE
     1 MOL         1 TEMP              0 ****  ****    0 ROOT
