@<TRIPOS>MOLECULE
MOL
  181   177     1     0     0
SMALL
resp


@<TRIPOS>ATOM
      1 C1         -9.1040   -6.1340   -3.6500 c3        1 MOL     -0.331438
      2 C2         -8.1500   -5.4760   -2.6670 c         1 MOL      0.707205
      3 O1         -7.2650   -6.0990   -2.0520 o         1 MOL     -0.623541
      4 H1         -8.6330   -7.0190   -4.0760 hc        1 MOL      0.081836
      5 H2        -10.0170   -6.4250   -3.1300 hc        1 MOL      0.081836
      6 H3         -9.3460   -5.4320   -4.4470 hc        1 MOL      0.081836
      7 N1         -8.2110   -4.2040   -2.4390 n         1 MOL     -0.623253
      8 C3         -9.1230   -3.1490   -2.9480 c3        1 MOL      0.097970
      9 C4         -9.9230   -2.5590   -1.8320 c         1 MOL      0.650183
     10 O2        -11.0570   -2.1720   -2.1320 o         1 MOL     -0.626897
     11 C5         -8.2970   -2.0630   -3.6970 c3        1 MOL     -0.148406
     12 C6         -7.3160   -1.2900   -2.8470 c         1 MOL      0.760434
     13 O3         -6.7340   -1.8750   -1.8720 o         1 MOL     -0.733706
     14 O4         -7.2260   -0.0920   -3.1640 o         1 MOL     -0.733706
     15 H4         -7.4940   -3.8560   -1.8080 hn        1 MOL      0.364753
     16 H5         -9.8420   -3.6440   -3.5930 h1        1 MOL      0.029754
     17 H6         -9.0090   -1.3270   -4.0520 hc        1 MOL      0.031175
     18 H7         -7.7240   -2.4110   -4.5640 hc        1 MOL      0.031175
     19 N2         -9.5470   -2.4610   -0.5650 n         1 MOL     -0.404622
     20 C7        -10.3300   -2.1900    0.6470 c3        1 MOL      0.174680
     21 C8        -10.1790   -0.8040    1.2880 c         1 MOL      0.366142
     22 O5        -10.8120   -0.4860    2.2990 o         1 MOL     -0.519084
     23 C9         -9.9700   -3.4010    1.5180 c3        1 MOL     -0.305330
     24 H8         -8.6030   -2.7470   -0.3150 hn        1 MOL      0.233221
     25 H9        -11.3720   -2.2840    0.3170 h1        1 MOL      0.046497
     26 H10        -8.9140   -3.4610    1.7450 hc        1 MOL      0.094607
     27 H11       -10.5290   -3.4080    2.4600 hc        1 MOL      0.094607
     28 H12       -10.3110   -4.2900    0.9940 hc        1 MOL      0.094607
     29 N3         -9.2650    0.0240    0.7610 n         1 MOL     -0.198018
     30 C10        -8.5910    1.1520    1.4510 c3        1 MOL     -0.017407
     31 C11        -7.8840    2.0630    0.4400 c         1 MOL      0.231865
     32 O6         -7.4460    1.5110   -0.5930 o         1 MOL     -0.384233
     33 C12        -7.4330    0.6880    2.3760 c3        1 MOL      0.030189
     34 C13        -6.6620   -0.4840    1.8200 c         1 MOL      0.586720
     35 O7         -6.9280   -1.6070    2.2990 o         1 MOL     -0.646525
     36 O8         -5.8850   -0.3360    0.8600 o         1 MOL     -0.646525
     37 H13        -8.9820   -0.1080   -0.1970 hn        1 MOL      0.161888
     38 H14        -9.3430    1.5890    2.1020 h1        1 MOL      0.059781
     39 H15        -7.9310    0.3420    3.2860 hc        1 MOL      0.001603
     40 H16        -6.8190    1.5270    2.6950 hc        1 MOL      0.001603
     41 N4         -7.6600    3.3490    0.7050 n         1 MOL     -0.194675
     42 C14        -6.7790    4.3290    0.0050 c3        1 MOL     -0.292192
     43 C15        -5.2880    3.8440   -0.0420 c         1 MOL      0.805146
     44 O9         -4.9760    2.7120   -0.4220 o         1 MOL     -0.673413
     45 H17        -8.0370    3.6610    1.5920 hn        1 MOL      0.231151
     46 H18        -6.8590    5.3100    0.4850 h1        1 MOL      0.115905
     47 H19        -7.1600    4.4540   -1.0100 h1        1 MOL      0.115905
     48 N5         -4.3770    4.7130    0.3110 n         1 MOL     -0.707273
     49 C16        -2.9300    4.4040    0.1360 c3        1 MOL      0.154457
     50 C17        -2.4790    3.2750    1.1070 c         1 MOL      0.743776
     51 O10        -2.9530    3.2830    2.1940 o         1 MOL     -0.556068
     52 C18        -2.0920    5.6480    0.3290 c3        1 MOL     -0.283059
     53 C19        -2.2110    6.6490   -0.7360 c         1 MOL      0.709025
     54 N6         -2.3390    7.9200   -0.3680 n         1 MOL     -0.834583
     55 O11        -2.2820    6.3730   -1.9200 o         1 MOL     -0.570705
     56 H20        -4.6660    5.6160    0.6440 hn        1 MOL      0.354721
     57 H21        -2.7510    4.1280   -0.9010 h1        1 MOL      0.098212
     58 H22        -1.0320    5.3810    0.3340 hc        1 MOL      0.094591
     59 H23        -2.2660    6.0630    1.3230 hc        1 MOL      0.094591
     60 H24        -2.5380    8.2000    0.5780 hn        1 MOL      0.370722
     61 H25        -2.2040    8.5410   -1.1510 hn        1 MOL      0.370722
     62 N7         -1.5010    2.4650    0.7430 n         1 MOL     -0.785033
     63 C20        -0.9090    1.5000    1.7660 c3        1 MOL      0.248009
     64 C21        -1.8440    0.3210    2.1800 c         1 MOL      0.531459
     65 O12        -2.7960    0.0170    1.4640 o         1 MOL     -0.533495
     66 H26        -1.2370    2.4060   -0.2260 hn        1 MOL      0.321364
     67 H27        -0.6530    2.0240    2.6800 h1        1 MOL      0.056866
     68 H28        -0.0380    1.1490    1.2190 h1        1 MOL      0.056866
     69 N8         -1.5850   -0.3200    3.2970 n         1 MOL     -0.466105
     70 C22        -0.5920   -0.0450    4.3580 c3        1 MOL     -0.005405
     71 C23         0.8460    0.1400    3.9500 c         1 MOL      0.299079
     72 O13         1.4200    1.2330    4.0890 o         1 MOL     -0.526617
     73 C24        -0.6560   -1.1250    5.4430 c3        1 MOL      0.227621
     74 C25        -1.9910   -1.1730    6.2360 c3        1 MOL     -0.291727
     75 O14        -0.5310   -2.3990    4.7820 oh        1 MOL     -0.563452
     76 H29        -2.0330   -1.2280    3.3030 hn        1 MOL      0.360245
     77 H30        -0.9250    0.8890    4.8260 h1        1 MOL      0.086402
     78 H31         0.1610   -0.9600    6.1500 h1        1 MOL      0.059482
     79 H32         0.0200   -2.8880    5.3980 ho        1 MOL      0.390225
     80 H33        -1.8240   -1.7070    7.1670 hc        1 MOL      0.079840
     81 H34        -2.4270   -0.2220    6.5200 hc        1 MOL      0.079840
     82 H35        -2.7670   -1.7140    5.7070 hc        1 MOL      0.079840
     83 N9          1.3940   -0.8210    3.2410 n         1 MOL     -0.310741
     84 C26         2.7630   -0.8640    2.7570 c3        1 MOL     -0.036782
     85 C27         2.7770   -1.3010    1.2730 c         1 MOL      0.613050
     86 O15         2.0190   -2.2270    0.9250 o         1 MOL     -0.558380
     87 C28         3.5660   -1.8190    3.6340 c3        1 MOL     -0.236633
     88 C29         3.5240   -1.2750    5.1220 c3        1 MOL      0.213416
     89 C30         5.0130   -1.9260    3.0370 c3        1 MOL     -0.035497
     90 C31         4.2210   -2.2230    6.0720 c3        1 MOL     -0.101134
     91 H36         0.8790   -1.6590    3.0080 hn        1 MOL      0.238960
     92 H37         3.2190    0.1270    2.7640 h1        1 MOL      0.138004
     93 H38         3.1550   -2.8160    3.4910 hc        1 MOL      0.117194
     94 H39         2.5430   -1.0330    5.5210 hc        1 MOL     -0.036370
     95 H40         4.0010   -0.2930    5.1980 hc        1 MOL     -0.036370
     96 H41         5.6220   -2.6190    3.6010 hc        1 MOL      0.057841
     97 H42         4.8560   -2.4360    2.0860 hc        1 MOL      0.057841
     98 H43         5.6630   -1.0600    2.8930 hc        1 MOL      0.057841
     99 H44         5.2920   -2.2850    5.8900 hc        1 MOL      0.006810
    100 H45         4.0500   -1.8690    7.0860 hc        1 MOL      0.006810
    101 H46         3.6500   -3.1440    5.9610 hc        1 MOL      0.006810
    102 N10         3.4940   -0.6840    0.3170 n         1 MOL     -0.591247
    103 C32         4.3530    0.5000    0.4150 c3        1 MOL      0.146956
    104 C33         5.6440    0.4420   -0.4010 c         1 MOL      0.521875
    105 O16         5.7250   -0.2060   -1.4460 o         1 MOL     -0.508537
    106 C34         3.5300    1.8120    0.0430 c3        1 MOL      0.192582
    107 C35         2.3800    1.6180   -0.9370 c         1 MOL      0.692017
    108 O17         2.6150    0.9510   -1.9680 o         1 MOL     -0.707294
    109 O18         1.2090    2.0190   -0.7450 o         1 MOL     -0.707294
    110 H47         3.3740   -1.1300   -0.5820 hn        1 MOL      0.336719
    111 H48         4.7050    0.5910    1.4420 h1        1 MOL      0.008479
    112 H49         4.1320    2.6700   -0.2660 hc        1 MOL     -0.100622
    113 H50         3.1220    2.2210    0.9640 hc        1 MOL     -0.100622
    114 N11         6.7140    1.0950    0.1060 n         1 MOL     -0.660684
    115 C36         7.9910    1.3630   -0.5920 c3        1 MOL      0.767860
    116 C37         9.2000    0.9690    0.2900 c         1 MOL      0.184377
    117 O19         9.1290    1.0040    1.4880 o         1 MOL     -0.483895
    118 C38         8.1910    2.8230   -0.9530 c3        1 MOL     -0.357701
    119 C39         6.8760    3.4880   -1.4390 ca        1 MOL      0.069038
    120 C40         6.3000    3.1600   -2.7200 ca        1 MOL     -0.093261
    121 C41         6.4380    4.6120   -0.6470 ca        1 MOL     -0.093261
    122 C42         5.2000    3.9600   -3.1740 ca        1 MOL     -0.231601
    123 C43         5.3120    5.2940   -1.1190 ca        1 MOL     -0.231601
    124 C44         4.6800    4.9040   -2.3130 ca        1 MOL     -0.021841
    125 H51         6.4780    1.6450    0.9300 hn        1 MOL      0.268705
    126 H52         7.9740    0.7260   -1.4720 h1        1 MOL     -0.036589
    127 H53         8.9160    2.8390   -1.7620 hc        1 MOL      0.072871
    128 H54         8.6200    3.4460   -0.1640 hc        1 MOL      0.072871
    129 H55         6.7480    2.3770   -3.3120 ha        1 MOL      0.114323
    130 H56         6.8950    4.8430    0.3080 ha        1 MOL      0.114323
    131 H57         4.8110    3.8240   -4.1740 ha        1 MOL      0.150673
    132 H58         4.7430    5.9570   -0.4870 ha        1 MOL      0.150673
    133 H59         3.7510    5.4140   -2.5290 ha        1 MOL      0.086818
    134 N12        10.3490    0.5710   -0.2840 n         1 MOL     -0.062678
    135 C45        10.5530    0.2930   -1.6600 c3        1 MOL     -0.061826
    136 C46         9.7270   -0.8160   -2.2340 c         1 MOL      0.447649
    137 O20         9.2480   -0.5800   -3.3130 o         1 MOL     -0.550069
    138 C47        12.0900   -0.1190   -1.7420 c3        1 MOL      0.164075
    139 C48        12.8440    0.3200   -0.4380 c3        1 MOL     -0.095402
    140 C49        11.5770    0.2720    0.4600 c3        1 MOL     -0.015243
    141 H60        10.3970    1.2250   -2.1910 h1        1 MOL      0.020022
    142 H61        12.0990   -1.2000   -1.8840 hc        1 MOL     -0.039323
    143 H62        12.6310    0.3780   -2.5510 hc        1 MOL     -0.039323
    144 H63        13.5880   -0.4200   -0.1380 hc        1 MOL      0.038779
    145 H64        13.2200    1.3400   -0.5690 hc        1 MOL      0.038779
    146 H65        11.5330   -0.7790    0.7410 h1        1 MOL      0.040737
    147 H66        11.7580    0.8240    1.3790 h1        1 MOL      0.040737
    148 N13         9.4580   -1.8620   -1.5050 n         1 MOL     -0.296058
    149 C50         8.4130   -2.8950   -1.7380 c3        1 MOL      0.005679
    150 C51         8.5750   -3.6880   -3.0670 c         1 MOL      0.564652
    151 O21         9.4490   -4.5610   -3.0800 o         1 MOL     -0.616448
    152 C52         8.4770   -3.9210   -0.5790 c3        1 MOL      0.141426
    153 C53         7.8220   -3.2620    0.6510 c3        1 MOL     -0.246775
    154 C54         7.8540   -4.2430    1.7940 c         1 MOL      0.762336
    155 O22         6.9160   -4.9840    2.0460 o         1 MOL     -0.754859
    156 O23         8.9520   -4.2640    2.4580 o         1 MOL     -0.754859
    157 H67         9.7470   -1.7460   -0.5390 hn        1 MOL      0.282253
    158 H68         7.3820   -2.5540   -1.7890 h1        1 MOL      0.078447
    159 H69         9.5230   -4.1450   -0.3510 hc        1 MOL     -0.003178
    160 H70         7.9400   -4.8420   -0.8100 hc        1 MOL     -0.003178
    161 H71         6.7610   -3.1200    0.4680 hc        1 MOL     -0.005940
    162 H72         8.2600   -2.2930    0.9260 hc        1 MOL     -0.005940
    163 N14         7.8520   -3.5160   -4.1450 n         1 MOL     -0.436052
    164 C55         6.6840   -2.5780   -4.4160 c3        1 MOL     -0.022404
    165 H73         6.6250   -1.8330   -3.6220 h1        1 MOL      0.061899
    166 H74         6.8350   -2.0770   -5.3730 h1        1 MOL      0.061899
    167 H75         5.7580   -3.1510   -4.4470 h1        1 MOL      0.061899
    168 H76         8.1800   -3.9260   -5.0110 hn        1 MOL      0.279376
    169 Ca1        -5.2440    0.3070   -1.5140 Ca        1 MOL      1.771874
    170 O24        -4.4990   -1.0120   -3.7260 oh        1 MOL     -0.833077
    171 H77        -4.8050   -1.1810   -4.6110 ho        1 MOL      0.410729
    172 H78        -3.5620   -1.2110   -3.7530 ho        1 MOL      0.410729
    173 O25        -2.6100    0.9460   -2.0640 oh        1 MOL     -0.833077
    174 H79        -2.0340    0.3510   -1.5950 ho        1 MOL      0.410729
    175 H80        -2.1100    1.7620   -2.1570 ho        1 MOL      0.410729
    176 O26        -3.3030   -1.9450   -1.1280 oh        1 MOL     -0.833077
    177 H81        -2.9300   -2.1060   -1.9930 ho        1 MOL      0.410729
    178 H82        -2.6720   -2.3320   -0.5160 ho        1 MOL      0.410729
    179 O27        -5.6650    2.3880   -3.2590 oh        1 MOL     -0.833077
    180 H83        -6.4970    2.5280   -3.6990 ho        1 MOL      0.410729
    181 H84        -5.1300    3.1390   -3.5150 ho        1 MOL      0.410729
@<TRIPOS>BOND
     1    1    2 1   
     2    1    4 1   
     3    1    5 1   
     4    1    6 1   
     5    2    3 2   
     6    2    7 1   
     7    7    8 1   
     8    7   15 1   
     9    8    9 1   
    10    8   11 1   
    11    8   16 1   
    12    9   10 2   
    13    9   19 1   
    14   11   12 1   
    15   11   17 1   
    16   11   18 1   
    17   12   13 1   
    18   12   14 1   
    19   19   20 1   
    20   19   24 1   
    21   20   21 1   
    22   20   23 1   
    23   20   25 1   
    24   21   22 2   
    25   21   29 1   
    26   23   26 1   
    27   23   27 1   
    28   23   28 1   
    29   29   30 1   
    30   29   37 1   
    31   30   31 1   
    32   30   33 1   
    33   30   38 1   
    34   31   32 2   
    35   31   41 1   
    36   33   34 1   
    37   33   39 1   
    38   33   40 1   
    39   34   35 1   
    40   34   36 1   
    41   41   42 1   
    42   41   45 1   
    43   42   43 1   
    44   42   46 1   
    45   42   47 1   
    46   43   44 2   
    47   43   48 1   
    48   48   49 1   
    49   48   56 1   
    50   49   50 1   
    51   49   52 1   
    52   49   57 1   
    53   50   51 2   
    54   50   62 1   
    55   52   53 1   
    56   52   58 1   
    57   52   59 1   
    58   53   54 1   
    59   53   55 2   
    60   54   60 1   
    61   54   61 1   
    62   62   63 1   
    63   62   66 1   
    64   63   64 1   
    65   63   67 1   
    66   63   68 1   
    67   64   65 2   
    68   64   69 1   
    69   69   70 1   
    70   69   76 1   
    71   70   71 1   
    72   70   73 1   
    73   70   77 1   
    74   71   72 2   
    75   71   83 1   
    76   73   74 1   
    77   73   75 1   
    78   73   78 1   
    79   74   80 1   
    80   74   81 1   
    81   74   82 1   
    82   75   79 1   
    83   83   84 1   
    84   83   91 1   
    85   84   85 1   
    86   84   87 1   
    87   84   92 1   
    88   85   86 2   
    89   85  102 1   
    90   87   88 1   
    91   87   89 1   
    92   87   93 1   
    93   88   90 1   
    94   88   94 1   
    95   88   95 1   
    96   89   96 1   
    97   89   97 1   
    98   89   98 1   
    99   90   99 1   
   100   90  100 1   
   101   90  101 1   
   102  102  103 1   
   103  102  110 1   
   104  103  104 1   
   105  103  106 1   
   106  103  111 1   
   107  104  105 2   
   108  104  114 1   
   109  106  107 1   
   110  106  112 1   
   111  106  113 1   
   112  107  108 1   
   113  107  109 1   
   114  114  115 1   
   115  114  125 1   
   116  115  116 1   
   117  115  118 1   
   118  115  126 1   
   119  116  117 2   
   120  116  134 1   
   121  118  119 1   
   122  118  127 1   
   123  118  128 1   
   124  119  120 ar  
   125  119  121 ar  
   126  120  122 ar  
   127  120  129 1   
   128  121  123 ar  
   129  121  130 1   
   130  122  124 ar  
   131  122  131 1   
   132  123  124 ar  
   133  123  132 1   
   134  124  133 1   
   135  134  135 1   
   136  134  140 1   
   137  135  136 1   
   138  135  138 1   
   139  135  141 1   
   140  136  137 2   
   141  136  148 1   
   142  138  139 1   
   143  138  142 1   
   144  138  143 1   
   145  139  140 1   
   146  139  144 1   
   147  139  145 1   
   148  140  146 1   
   149  140  147 1   
   150  148  149 1   
   151  148  157 1   
   152  149  150 1   
   153  149  152 1   
   154  149  158 1   
   155  150  151 2   
   156  150  163 1   
   157  152  153 1   
   158  152  159 1   
   159  152  160 1   
   160  153  154 1   
   161  153  161 1   
   162  153  162 1   
   163  154  155 1   
   164  154  156 1   
   165  163  164 1   
   166  163  168 1   
   167  164  165 1   
   168  164  166 1   
   169  164  167 1   
   170  170  171 1   
   171  170  172 1   
   172  173  174 1   
   173  173  175 1   
   174  176  177 1   
   175  176  178 1   
   176  179  180 1   
   177  179  181 1   
@<TRIPOS>SUBSTRUCTURE
     1 MOL         1 TEMP              0 ****  ****    0 ROOT
