@<TRIPOS>MOLECULE
MOL
  188   182     1     0     0
SMALL
resp


@<TRIPOS>ATOM
      1 C1         -8.9850    6.0800    0.6000 c3        1 MOL     -0.436317
      2 C2         -9.4050    4.8530   -0.3220 c         1 MOL      0.737654
      3 O1         -8.9000    4.6290   -1.3910 o         1 MOL     -0.582672
      4 H1         -9.2520    5.8640    1.6350 hc        1 MOL      0.107322
      5 H2         -7.9090    6.2390    0.5270 hc        1 MOL      0.107322
      6 H3         -9.5080    6.9780    0.2700 hc        1 MOL      0.107322
      7 N1        -10.1560    3.9060    0.2530 n         1 MOL     -0.678649
      8 C3        -10.4400    2.5830   -0.2500 c3        1 MOL      0.487775
      9 C4         -9.4410    1.5740    0.1990 c         1 MOL      0.546895
     10 O2         -8.8890    1.7470    1.2900 o         1 MOL     -0.560798
     11 C5        -11.8720    2.0680    0.0590 c3        1 MOL     -0.374020
     12 C6        -13.0130    2.9310   -0.3300 c         1 MOL      0.689501
     13 O3        -14.1940    2.8100    0.1500 o         1 MOL     -0.663880
     14 O4        -12.7150    3.7530   -1.2920 o         1 MOL     -0.663880
     15 H4        -10.6740    4.2210    1.0650 hn        1 MOL      0.341285
     16 H5        -10.2430    2.5860   -1.3230 h1        1 MOL     -0.018773
     17 H6        -11.8610    1.9670    1.1350 hc        1 MOL      0.053697
     18 H7        -12.1050    1.1320   -0.4470 hc        1 MOL      0.053697
     19 N2         -9.3550    0.4150   -0.5110 n         1 MOL     -0.601587
     20 C7         -8.3930   -0.6570   -0.2420 c3        1 MOL      0.040305
     21 C8         -7.0660   -0.4610   -0.9390 c         1 MOL      0.737211
     22 O5         -6.9740   -0.2870   -2.2000 o         1 MOL     -0.604141
     23 C9         -9.0390   -1.9840   -0.5500 c3        1 MOL      0.086159
     24 C10       -10.2120   -2.2880    0.4430 c3        1 MOL     -0.101728
     25 C11       -10.6640   -3.7920    0.3600 c3        1 MOL     -0.001847
     26 C12       -11.3420   -4.1640   -0.9250 c3        1 MOL      0.028473
     27 N3        -11.6520   -5.6390   -1.0980 n4        1 MOL     -0.332415
     28 H8         -9.7910    0.2970   -1.4220 hn        1 MOL      0.301754
     29 H9         -8.1550   -0.6860    0.8210 h1        1 MOL      0.062321
     30 H10        -8.2250   -2.7030   -0.4630 hc        1 MOL     -0.018274
     31 H11        -9.3670   -2.1070   -1.5800 hc        1 MOL     -0.018274
     32 H12       -11.0300   -1.5900    0.2730 hc        1 MOL      0.069180
     33 H13        -9.8320   -2.1810    1.4650 hc        1 MOL      0.069180
     34 H14       -11.2700   -3.9620    1.2490 hc        1 MOL      0.017776
     35 H15        -9.7960   -4.4430    0.4550 hc        1 MOL      0.017776
     36 H16       -10.7390   -3.8490   -1.7790 hx        1 MOL      0.094817
     37 H17       -12.2860   -3.6160   -0.9710 hx        1 MOL      0.094817
     38 H18       -12.3040   -5.7750   -0.3340 hn        1 MOL      0.263315
     39 H19       -11.9750   -5.7540   -2.0480 hn        1 MOL      0.263315
     40 H20       -10.8540   -6.2290   -0.8940 hn        1 MOL      0.263315
     41 N4         -5.9220   -0.6560   -0.2640 n         1 MOL     -0.589414
     42 C13        -4.5690   -0.5000   -0.8100 c3        1 MOL      0.069177
     43 C14        -4.1170   -1.5500   -1.7730 c         1 MOL      0.468360
     44 O6         -4.0830   -2.7530   -1.4270 o         1 MOL     -0.508543
     45 C15        -3.5510   -0.3610    0.4510 c3        1 MOL     -0.048973
     46 C16        -2.2050    0.1220   -0.0760 c         1 MOL      0.502846
     47 O7         -1.4920   -0.5900   -0.7560 o         1 MOL     -0.657645
     48 O8         -1.8370    1.3080    0.1660 o         1 MOL     -0.657645
     49 H21        -6.0070   -1.0800    0.6460 hn        1 MOL      0.286045
     50 H22        -4.5460    0.4590   -1.3240 h1        1 MOL      0.080967
     51 H23        -3.4980   -1.3510    0.8960 hc        1 MOL      0.052225
     52 H24        -3.9470    0.4200    1.1050 hc        1 MOL      0.052225
     53 N5         -3.4420   -1.1260   -2.8270 n         1 MOL     -0.214652
     54 C17        -2.9200   -1.9710   -3.8850 c3        1 MOL     -0.415728
     55 C18        -1.9160   -3.1010   -3.5600 c         1 MOL      0.607358
     56 O9         -1.8150   -4.0750   -4.2480 o         1 MOL     -0.531447
     57 H25        -3.4200   -0.1270   -2.9800 hn        1 MOL      0.288072
     58 H26        -2.4660   -1.3390   -4.6540 h1        1 MOL      0.170362
     59 H27        -3.7590   -2.5290   -4.2970 h1        1 MOL      0.170362
     60 N6         -1.2260   -2.9440   -2.3940 n         1 MOL     -0.418940
     61 C19        -0.2650   -3.9460   -1.8090 c3        1 MOL      0.017276
     62 C20        -0.4210   -4.2120   -0.3600 c         1 MOL      0.403849
     63 O10         0.4610   -4.7580    0.2960 o         1 MOL     -0.497790
     64 C21         1.2360   -3.5720   -2.2570 c3        1 MOL     -0.277227
     65 C22         1.8130   -2.2820   -1.7500 c         1 MOL      0.317029
     66 N7          3.1390   -2.1920   -1.5030 n         1 MOL     -0.384500
     67 O11         1.0560   -1.3370   -1.3300 o         1 MOL     -0.436893
     68 H28        -1.4370   -2.0650   -1.9450 hn        1 MOL      0.310531
     69 H29        -0.5540   -4.9340   -2.1400 h1        1 MOL      0.132691
     70 H30         1.1410   -3.5640   -3.3400 hc        1 MOL      0.129228
     71 H31         1.9180   -4.3420   -1.8830 hc        1 MOL      0.129228
     72 H32         3.7160   -2.7500   -2.1070 hn        1 MOL      0.263685
     73 H33         3.4970   -1.2910   -1.2150 hn        1 MOL      0.263685
     74 N8         -1.5650   -3.7960    0.1600 n         1 MOL     -0.067711
     75 C23        -2.0250   -3.8430    1.5390 c3        1 MOL     -0.373622
     76 C24        -1.4610   -2.6940    2.5160 c         1 MOL      0.609126
     77 O12        -1.7450   -2.7050    3.7420 o         1 MOL     -0.525109
     78 H34        -2.2740   -3.5230   -0.4990 hn        1 MOL      0.163565
     79 H35        -1.9100   -4.8370    1.9570 h1        1 MOL      0.155918
     80 H36        -3.0930   -3.6200    1.4700 h1        1 MOL      0.155918
     81 N9         -0.5940   -1.7730    2.0550 n         1 MOL     -0.507631
     82 C25        -0.0680   -0.7160    2.9340 c3        1 MOL     -0.107506
     83 C26         1.1410    0.0670    2.2870 c         1 MOL      0.345352
     84 O13         1.0900    0.4680    1.1370 o         1 MOL     -0.611063
     85 C27        -1.1730    0.2860    3.3880 c3        1 MOL     -0.158252
     86 C28        -0.7330    1.6060    3.9820 ca        1 MOL      0.055960
     87 C29         0.1420    1.6050    5.1170 ca        1 MOL     -0.160219
     88 C30        -0.8780    2.8270    3.2250 ca        1 MOL     -0.160219
     89 C31         0.6540    2.8560    5.5720 ca        1 MOL     -0.239073
     90 C32        -0.2500    4.0180    3.6720 ca        1 MOL     -0.239073
     91 C33         0.4180    4.0600    4.8650 ca        1 MOL      0.325861
     92 O14         1.1770    5.1950    5.2050 oh        1 MOL     -0.483388
     93 H37        -0.1760   -1.8820    1.1420 hn        1 MOL      0.419948
     94 H38         0.3410   -1.1700    3.8420 h1        1 MOL      0.135067
     95 H39        -1.6690   -0.2240    4.2150 hc        1 MOL      0.116842
     96 H40        -1.9010    0.4870    2.6070 hc        1 MOL      0.116842
     97 H41         0.2920    0.7020    5.6840 ha        1 MOL      0.146184
     98 H42        -1.4440    2.7130    2.3100 ha        1 MOL      0.146184
     99 H43         1.3280    2.7970    6.4210 ha        1 MOL      0.135297
    100 H44        -0.3570    4.9100    3.0680 ha        1 MOL      0.135297
    101 H45         0.7690    5.9550    4.7810 ho        1 MOL      0.359069
    102 N10         2.2600    0.1520    3.0370 n         1 MOL     -0.090583
    103 C34         3.5780    0.3340    2.5300 c3        1 MOL     -0.201534
    104 C35         4.0540   -0.8550    1.7000 c         1 MOL      0.617345
    105 O15         4.5180   -0.6480    0.5900 o         1 MOL     -0.655762
    106 C36         4.5820    0.6170    3.6670 c3        1 MOL      0.088144
    107 C37         4.1830    1.7930    4.5630 c3        1 MOL     -0.003529
    108 C38         5.9760    0.8600    3.1390 c3        1 MOL     -0.532347
    109 C39         4.2400    3.1920    3.9120 c3        1 MOL     -0.397286
    110 H46         2.1220   -0.1400    3.9840 hn        1 MOL      0.160039
    111 H47         3.5600    1.1700    1.8400 h1        1 MOL      0.156316
    112 H48         4.7510   -0.2870    4.2490 hc        1 MOL     -0.027587
    113 H49         4.9580    1.7800    5.3310 hc        1 MOL      0.067122
    114 H50         3.2400    1.5730    5.0620 hc        1 MOL      0.067122
    115 H51         6.5200   -0.0580    2.9320 hc        1 MOL      0.152623
    116 H52         5.9960    1.5670    2.3100 hc        1 MOL      0.152623
    117 H53         6.5700    1.3720    3.9080 hc        1 MOL      0.152623
    118 H54         5.2570    3.3940    3.5780 hc        1 MOL      0.114602
    119 H55         3.6260    3.1800    3.0070 hc        1 MOL      0.114602
    120 H56         3.9930    3.9380    4.6660 hc        1 MOL      0.114602
    121 N11         3.8290   -2.0430    2.1900 n         1 MOL     -0.090740
    122 C40         4.2010   -3.3130    1.5500 c3        1 MOL     -0.265453
    123 C41         5.6460   -3.6750    1.3390 c         1 MOL      0.445137
    124 O16         5.9400   -4.3890    0.3990 o         1 MOL     -0.488815
    125 C42         3.4380   -4.5100    2.1480 c3        1 MOL      0.278109
    126 O17         2.1300   -4.1130    2.3850 oh        1 MOL     -0.626484
    127 H57         3.3350   -2.0940    3.0700 hn        1 MOL      0.200411
    128 H58         3.7660   -3.2480    0.5510 h1        1 MOL      0.165369
    129 H59         3.9440   -4.7840    3.0650 h1        1 MOL      0.022821
    130 H60         3.4080   -5.3600    1.4720 h1        1 MOL      0.022821
    131 H61         1.4770   -4.4970    1.7890 ho        1 MOL      0.399338
    132 N12         6.5930   -3.0160    2.0350 n         1 MOL     -0.424612
    133 C43         7.9750   -2.7890    1.7700 c3        1 MOL      0.312978
    134 C44         8.3190   -2.1430    0.3870 c         1 MOL      0.214945
    135 O18         9.4750   -2.1290   -0.0360 o         1 MOL     -0.469942
    136 C45         8.7520   -4.0560    2.0310 c3        1 MOL     -0.334272
    137 H62         6.1700   -2.4180    2.7250 hn        1 MOL      0.243195
    138 H63         8.2010   -2.0730    2.5570 h1        1 MOL      0.044042
    139 H64         8.3950   -4.8750    1.4210 hc        1 MOL      0.098147
    140 H65         9.8190   -3.8600    1.9000 hc        1 MOL      0.098147
    141 H66         8.5640   -4.2790    3.0840 hc        1 MOL      0.098147
    142 N13         7.3280   -1.6680   -0.3660 n         1 MOL     -0.105784
    143 C46         7.6700   -0.9740   -1.5890 c3        1 MOL      0.035065
    144 C47         8.2600    0.5140   -1.4320 c         1 MOL      0.568327
    145 O19         8.0340    1.1870   -0.3960 o         1 MOL     -0.493787
    146 C48         6.4490   -1.0880   -2.4630 c3        1 MOL     -0.037665
    147 H67         6.3710   -1.5880   -0.0480 hn        1 MOL      0.131788
    148 H68         8.3410   -1.5780   -2.2130 h1        1 MOL      0.059029
    149 H69         6.5400   -0.5740   -3.4200 hc        1 MOL      0.010728
    150 H70         6.0360   -2.0990   -2.5000 hc        1 MOL      0.010728
    151 H71         5.6490   -0.5590   -1.9590 hc        1 MOL      0.010728
    152 N14         8.9720    0.9710   -2.4560 n         1 MOL     -0.600501
    153 C49         9.4600    2.3280   -2.6450 c3        1 MOL      0.054712
    154 C50        10.1680    2.9660   -1.3790 c         1 MOL      0.374389
    155 O20        10.2520    4.1990   -1.3330 o         1 MOL     -0.496348
    156 C51         8.3110    3.2800   -3.2040 c3        1 MOL      0.217265
    157 C52         7.6310    2.6550   -4.4520 c3        1 MOL     -0.309100
    158 C53         6.8270    3.7150   -5.2290 c         1 MOL      0.701177
    159 O21         5.8360    4.2210   -4.6940 o         1 MOL     -0.679241
    160 O22         7.0910    3.9850   -6.4640 o         1 MOL     -0.679241
    161 H72         9.1910    0.3310   -3.2120 hn        1 MOL      0.325460
    162 H73        10.1450    2.3510   -3.4870 h1        1 MOL      0.076859
    163 H74         8.8070    4.2160   -3.4950 hc        1 MOL     -0.022023
    164 H75         7.5470    3.4330   -2.4540 hc        1 MOL     -0.022023
    165 H76         7.0000    1.8090   -4.1990 hc        1 MOL      0.043500
    166 H77         8.4480    2.2210   -5.0310 hc        1 MOL      0.043500
    167 N15        10.7830    2.2020   -0.4940 n         1 MOL     -0.209686
    168 C54        11.2560    2.6170    0.8140 c3        1 MOL     -0.219208
    169 H78        10.4200    3.0070    1.3950 h1        1 MOL      0.104758
    170 H79        11.6890    1.7610    1.3320 h1        1 MOL      0.104758
    171 H80        12.0110    3.3940    0.6980 h1        1 MOL      0.104758
    172 H81        10.8600    1.2230   -0.7080 hn        1 MOL      0.217168
    173 Ca1         0.3870    1.2010   -1.1910 Ca        1 MOL      1.748346
    174 O23         1.6170    2.4220   -3.3820 oh        1 MOL     -0.836174
    175 H82         2.0430    2.1430   -4.1900 ho        1 MOL      0.416972
    176 H83         1.2410    3.2730   -3.5850 ho        1 MOL      0.416972
    177 O24         1.2370    3.3260    0.4530 oh        1 MOL     -0.836174
    178 H84         1.0880    3.3220    1.3970 ho        1 MOL      0.416972
    179 H85         1.8100    4.0740    0.3080 ho        1 MOL      0.416972
    180 O25        -1.1690    3.4970   -1.9030 oh        1 MOL     -0.836174
    181 H86        -0.8250    4.1430   -2.5230 ho        1 MOL      0.416972
    182 H87        -1.3890    4.0040   -1.1290 ho        1 MOL      0.416972
    183 O26        -0.4670    0.3960   -3.6690 oh        1 MOL     -0.836174
    184 H88        -0.8680    0.6820   -4.4870 ho        1 MOL      0.416972
    185 H89         0.3510   -0.0110   -3.9260 ho        1 MOL      0.416972
    186 O27         2.9840    0.8570   -0.8930 oh        1 MOL     -0.836174
    187 H90         3.5800    0.8160   -0.1370 ho        1 MOL      0.416972
    188 H91         3.5110    1.2570   -1.5820 ho        1 MOL      0.416972
@<TRIPOS>BOND
     1    1    2 1   
     2    1    4 1   
     3    1    5 1   
     4    1    6 1   
     5    2    3 2   
     6    2    7 1   
     7    7    8 1   
     8    7   15 1   
     9    8    9 1   
    10    8   11 1   
    11    8   16 1   
    12    9   10 2   
    13    9   19 1   
    14   11   12 1   
    15   11   17 1   
    16   11   18 1   
    17   12   13 1   
    18   12   14 1   
    19   19   20 1   
    20   19   28 1   
    21   20   21 1   
    22   20   23 1   
    23   20   29 1   
    24   21   22 2   
    25   21   41 1   
    26   23   24 1   
    27   23   30 1   
    28   23   31 1   
    29   24   25 1   
    30   24   32 1   
    31   24   33 1   
    32   25   26 1   
    33   25   34 1   
    34   25   35 1   
    35   26   27 1   
    36   26   36 1   
    37   26   37 1   
    38   27   38 1   
    39   27   39 1   
    40   27   40 1   
    41   41   42 1   
    42   41   49 1   
    43   42   43 1   
    44   42   45 1   
    45   42   50 1   
    46   43   44 2   
    47   43   53 1   
    48   45   46 1   
    49   45   51 1   
    50   45   52 1   
    51   46   47 1   
    52   46   48 1   
    53   53   54 1   
    54   53   57 1   
    55   54   55 1   
    56   54   58 1   
    57   54   59 1   
    58   55   56 2   
    59   55   60 1   
    60   60   61 1   
    61   60   68 1   
    62   61   62 1   
    63   61   64 1   
    64   61   69 1   
    65   62   63 2   
    66   62   74 1   
    67   64   65 1   
    68   64   70 1   
    69   64   71 1   
    70   65   66 1   
    71   65   67 2   
    72   66   72 1   
    73   66   73 1   
    74   74   75 1   
    75   74   78 1   
    76   75   76 1   
    77   75   79 1   
    78   75   80 1   
    79   76   77 2   
    80   76   81 1   
    81   81   82 1   
    82   81   93 1   
    83   82   83 1   
    84   82   85 1   
    85   82   94 1   
    86   83   84 2   
    87   83  102 1   
    88   85   86 1   
    89   85   95 1   
    90   85   96 1   
    91   86   87 ar  
    92   86   88 ar  
    93   87   89 ar  
    94   87   97 1   
    95   88   90 ar  
    96   88   98 1   
    97   89   91 ar  
    98   89   99 1   
    99   90   91 ar  
   100   90  100 1   
   101   91   92 1   
   102   92  101 1   
   103  102  103 1   
   104  102  110 1   
   105  103  104 1   
   106  103  106 1   
   107  103  111 1   
   108  104  105 2   
   109  104  121 1   
   110  106  107 1   
   111  106  108 1   
   112  106  112 1   
   113  107  109 1   
   114  107  113 1   
   115  107  114 1   
   116  108  115 1   
   117  108  116 1   
   118  108  117 1   
   119  109  118 1   
   120  109  119 1   
   121  109  120 1   
   122  121  122 1   
   123  121  127 1   
   124  122  123 1   
   125  122  125 1   
   126  122  128 1   
   127  123  124 2   
   128  123  132 1   
   129  125  126 1   
   130  125  129 1   
   131  125  130 1   
   132  126  131 1   
   133  132  133 1   
   134  132  137 1   
   135  133  134 1   
   136  133  136 1   
   137  133  138 1   
   138  134  135 2   
   139  134  142 1   
   140  136  139 1   
   141  136  140 1   
   142  136  141 1   
   143  142  143 1   
   144  142  147 1   
   145  143  144 1   
   146  143  146 1   
   147  143  148 1   
   148  144  145 2   
   149  144  152 1   
   150  146  149 1   
   151  146  150 1   
   152  146  151 1   
   153  152  153 1   
   154  152  161 1   
   155  153  154 1   
   156  153  156 1   
   157  153  162 1   
   158  154  155 2   
   159  154  167 1   
   160  156  157 1   
   161  156  163 1   
   162  156  164 1   
   163  157  158 1   
   164  157  165 1   
   165  157  166 1   
   166  158  159 1   
   167  158  160 1   
   168  167  168 1   
   169  167  172 1   
   170  168  169 1   
   171  168  170 1   
   172  168  171 1   
   173  174  175 1   
   174  174  176 1   
   175  177  178 1   
   176  177  179 1   
   177  180  181 1   
   178  180  182 1   
   179  183  184 1   
   180  183  185 1   
   181  186  187 1   
   182  186  188 1   
@<TRIPOS>SUBSTRUCTURE
     1 MOL         1 TEMP              0 ****  ****    0 ROOT
