@<TRIPOS>MOLECULE
MOL
  179   176     1     0     0
SMALL
resp


@<TRIPOS>ATOM
      1 C1          2.8140    1.8080    6.0730 c3        1 MOL     -0.340097
      2 C2          2.6010    1.9450    4.5230 c         1 MOL      0.706367
      3 O1          3.5300    1.7080    3.7270 o         1 MOL     -0.592378
      4 H1          1.8820    1.4890    6.5400 hc        1 MOL      0.093342
      5 H2          3.5900    1.0700    6.2700 hc        1 MOL      0.093342
      6 H3          3.1140    2.7710    6.4850 hc        1 MOL      0.093342
      7 N1          1.3550    2.1510    4.1310 n         1 MOL     -0.550552
      8 C3          0.8620    2.2720    2.8000 c3        1 MOL     -0.036545
      9 C4          1.1780    3.6720    2.1070 c         1 MOL      0.687435
     10 O2          0.9470    4.7970    2.5490 o         1 MOL     -0.562140
     11 C5         -0.6390    2.0570    2.8160 c3        1 MOL     -0.174944
     12 C6         -1.2450    1.7640    1.4700 c         1 MOL      0.681416
     13 O3         -2.3970    1.3190    1.2960 o         1 MOL     -0.710289
     14 O4         -0.4490    1.8130    0.5190 o         1 MOL     -0.710289
     15 H4          0.6650    2.4070    4.8320 hn        1 MOL      0.318081
     16 H5          1.4240    1.5260    2.2270 h1        1 MOL      0.024414
     17 H6         -1.0490    3.0290    3.0790 hc        1 MOL      0.046800
     18 H7         -0.8750    1.2750    3.5390 hc        1 MOL      0.046800
     19 N2          1.7750    3.5450    0.8910 n         1 MOL     -0.535306
     20 C7          2.5000    4.5980    0.2140 c3        1 MOL      0.061706
     21 C8          1.7570    5.0950   -1.0450 c         1 MOL      0.453936
     22 O5          2.0110    6.1810   -1.5560 o         1 MOL     -0.564843
     23 C9          3.8560    3.9610   -0.1830 c3        1 MOL     -0.181499
     24 C10         4.6540    5.0500   -0.9150 c3        1 MOL     -0.100226
     25 C11         6.0740    4.5870   -0.9670 c3        1 MOL      0.079263
     26 C12         7.1120    5.7030   -1.3240 c3        1 MOL      0.059424
     27 N3          8.5270    5.4100   -1.2570 n4        1 MOL     -0.290027
     28 H8          1.8590    2.6290    0.4610 hn        1 MOL      0.341168
     29 H9          2.6690    5.4190    0.9110 h1        1 MOL      0.119499
     30 H10         3.6580    3.1360   -0.8720 hc        1 MOL      0.093550
     31 H11         4.4130    3.6090    0.6820 hc        1 MOL      0.093550
     32 H12         4.5390    6.0100   -0.4030 hc        1 MOL      0.063749
     33 H13         4.3810    5.2080   -1.9590 hc        1 MOL      0.063749
     34 H14         6.1420    3.7380   -1.6450 hc        1 MOL     -0.007717
     35 H15         6.4330    4.1960   -0.0090 hc        1 MOL     -0.007717
     36 H16         6.8490    6.5820   -0.7460 hx        1 MOL      0.055990
     37 H17         6.9160    6.0260   -2.3420 hx        1 MOL      0.055990
     38 H18         8.6960    5.1270   -0.3000 hn        1 MOL      0.291703
     39 H19         8.8120    4.5830   -1.7600 hn        1 MOL      0.291703
     40 H20         9.0130    6.2780   -1.4120 hn        1 MOL      0.291703
     41 N4          0.8120    4.3180   -1.5400 n         1 MOL     -0.321197
     42 C13        -0.3090    4.8340   -2.3730 c3        1 MOL      0.198696
     43 C14        -1.4380    5.2150   -1.4300 c         1 MOL      0.359255
     44 O6         -2.1930    6.1830   -1.7090 o         1 MOL     -0.555533
     45 C15        -0.6350    3.7590   -3.4330 c3        1 MOL     -0.426038
     46 C16        -0.8550    2.4500   -2.7430 c         1 MOL      0.801554
     47 O7         -1.9780    2.2420   -2.2030 o         1 MOL     -0.770720
     48 O8          0.0920    1.5930   -2.5100 o         1 MOL     -0.770720
     49 H21         0.7960    3.3590   -1.2210 hn        1 MOL      0.206595
     50 H22        -0.0640    5.7490   -2.9100 h1        1 MOL      0.086969
     51 H23         0.2230    3.6870   -4.0970 hc        1 MOL      0.117293
     52 H24        -1.4900    3.9860   -4.0780 hc        1 MOL      0.117293
     53 N5         -1.6770    4.5200   -0.3450 n         1 MOL      0.035581
     54 C17        -2.6460    4.8770    0.7240 c3        1 MOL     -0.267928
     55 C18        -4.0580    4.3260    0.6180 c         1 MOL      0.585541
     56 O9         -4.8560    4.5140    1.5610 o         1 MOL     -0.590157
     57 H25        -1.0200    3.8120   -0.0550 hn        1 MOL      0.084995
     58 H26        -2.8090    5.9570    0.6990 h1        1 MOL      0.121196
     59 H27        -2.1570    4.6810    1.6890 h1        1 MOL      0.121196
     60 N6         -4.3190    3.5950   -0.4120 n         1 MOL     -0.160733
     61 C19        -5.6350    2.9050   -0.6620 c3        1 MOL     -0.095689
     62 C20        -5.4770    1.4200   -1.1930 c         1 MOL      0.643971
     63 O10        -4.2920    0.9140   -1.3260 o         1 MOL     -0.559257
     64 C21        -6.3180    3.8620   -1.7110 c3        1 MOL     -0.345390
     65 C22        -6.5580    5.1990   -1.1210 c         1 MOL      0.703236
     66 N7         -7.7240    5.3640   -0.6400 n         1 MOL     -0.749282
     67 O11        -5.7870    6.1630   -1.2640 o         1 MOL     -0.541433
     68 H28        -3.5650    3.4550   -1.0670 hn        1 MOL      0.229082
     69 H29        -6.2900    2.8660    0.2010 h1        1 MOL      0.077971
     70 H30        -7.2580    3.4900   -2.1200 hc        1 MOL      0.092249
     71 H31        -5.6630    4.0130   -2.5600 hc        1 MOL      0.092249
     72 H32        -8.4060    4.6170   -0.5350 hn        1 MOL      0.347192
     73 H33        -7.8960    6.2030   -0.1030 hn        1 MOL      0.347192
     74 N8         -6.6650    0.8020   -1.4510 n         1 MOL     -0.414468
     75 C23        -6.7620   -0.5910   -1.7570 c3        1 MOL     -0.243777
     76 C24        -6.1470   -1.5040   -0.6450 c         1 MOL      0.696996
     77 O12        -6.5470   -1.4010    0.4920 o         1 MOL     -0.513347
     78 H34        -7.5250    1.3180   -1.4480 hn        1 MOL      0.330321
     79 H35        -6.2260   -0.7260   -2.7010 h1        1 MOL      0.121589
     80 H36        -7.7940   -0.9420   -1.7100 h1        1 MOL      0.121589
     81 N9         -5.1630   -2.4060   -0.9500 n         1 MOL     -0.796695
     82 C25        -4.4650   -3.2990   -0.0100 c3        1 MOL      0.458575
     83 C26        -3.4220   -2.4780    0.8100 c         1 MOL      0.135405
     84 O13        -3.2540   -1.3250    0.6100 o         1 MOL     -0.257445
     85 C27        -4.0000   -4.6210   -0.7580 c3        1 MOL     -0.222215
     86 C28        -5.1900   -5.4600   -1.3270 ca        1 MOL      0.123376
     87 C29        -5.0730   -5.8790   -2.6160 ca        1 MOL     -0.141461
     88 C30        -6.2240   -5.9620   -0.4850 ca        1 MOL     -0.141461
     89 C31        -6.1230   -6.6910   -3.1720 ca        1 MOL     -0.302226
     90 C32        -7.3140   -6.6530   -0.9920 ca        1 MOL     -0.302226
     91 C33        -7.2240   -6.9570   -2.3920 ca        1 MOL      0.354747
     92 O14        -8.2470   -7.5630   -3.0730 oh        1 MOL     -0.483141
     93 H37        -4.8700   -2.4400   -1.9110 hn        1 MOL      0.326722
     94 H38        -5.1230   -3.6930    0.7650 h1        1 MOL      0.023817
     95 H39        -3.4540   -5.2890   -0.1010 hc        1 MOL      0.046437
     96 H40        -3.3920   -4.3960   -1.6360 hc        1 MOL      0.046437
     97 H41        -4.2350   -5.5980   -3.2370 ha        1 MOL      0.126127
     98 H42        -6.1870   -5.6090    0.5390 ha        1 MOL      0.126127
     99 H43        -5.9860   -7.0870   -4.1730 ha        1 MOL      0.179693
    100 H44        -8.2290   -6.8190   -0.4510 ha        1 MOL      0.179693
    101 H45        -8.9230   -7.6910   -2.3940 ho        1 MOL      0.361558
    102 N10        -2.8820   -3.0330    1.9160 n         1 MOL     -0.497798
    103 C34        -2.0370   -2.4970    3.0170 c3        1 MOL      0.021370
    104 C35        -0.6720   -2.0480    2.4680 c         1 MOL      0.520922
    105 O15        -0.5630   -1.2450    1.5120 o         1 MOL     -0.498090
    106 C36        -2.8630   -1.4920    3.8080 c3        1 MOL      0.483645
    107 C37        -2.3400   -1.1990    5.1580 c3        1 MOL     -0.074599
    108 C38        -4.4030   -1.7910    4.0340 c3        1 MOL     -0.407620
    109 C39        -2.2370   -2.4230    6.0930 c3        1 MOL     -0.422121
    110 H46        -3.2140   -3.9700    2.0750 hn        1 MOL      0.282217
    111 H47        -1.8930   -3.3660    3.6550 h1        1 MOL      0.027302
    112 H48        -2.7360   -0.5490    3.2660 hc        1 MOL     -0.100644
    113 H49        -2.9360   -0.4420    5.6680 hc        1 MOL      0.046394
    114 H50        -1.3670   -0.7730    4.9080 hc        1 MOL      0.046394
    115 H51        -4.8130   -0.8550    4.4120 hc        1 MOL      0.108135
    116 H52        -4.8790   -1.9790    3.0710 hc        1 MOL      0.108135
    117 H53        -4.5220   -2.5800    4.7720 hc        1 MOL      0.108135
    118 H54        -1.8400   -2.0280    7.0250 hc        1 MOL      0.103733
    119 H55        -3.2260   -2.8040    6.3320 hc        1 MOL      0.103733
    120 H56        -1.5850   -3.2330    5.7600 hc        1 MOL      0.103733
    121 N11         0.3740   -2.4570    3.1660 n         1 MOL     -0.543540
    122 C40         1.7020   -1.8150    3.0560 c3        1 MOL      0.064656
    123 C41         2.4250   -1.9760    1.7370 c         1 MOL      0.389459
    124 O16         3.5420   -1.4450    1.5740 o         1 MOL     -0.529277
    125 C42         2.6560   -2.2960    4.2060 c3        1 MOL      0.065289
    126 O17         1.9140   -2.5360    5.4210 oh        1 MOL     -0.589687
    127 H57         0.2050   -3.1710    3.8610 hn        1 MOL      0.293425
    128 H58         1.4790   -0.7550    3.1370 h1        1 MOL      0.226437
    129 H59         3.3750   -1.4860    4.3050 h1        1 MOL      0.098049
    130 H60         3.1190   -3.2030    3.8300 h1        1 MOL      0.098049
    131 H61         1.4710   -3.3830    5.3270 ho        1 MOL      0.387884
    132 N12         1.9040   -2.7310    0.7690 n         1 MOL     -0.329965
    133 C43         2.5510   -2.6180   -0.5290 c3        1 MOL     -0.005341
    134 C44         2.2340   -1.2250   -1.1240 c         1 MOL      0.731016
    135 O18         1.0840   -0.7860   -1.0690 o         1 MOL     -0.603962
    136 C45         2.2010   -3.8070   -1.4470 c3        1 MOL     -0.335240
    137 H62         1.0300   -3.1900    0.9920 hn        1 MOL      0.231840
    138 H63         3.6270   -2.7490   -0.4180 h1        1 MOL      0.144778
    139 H64         1.1310   -3.8790   -1.6520 hc        1 MOL      0.094907
    140 H65         2.5600   -3.6080   -2.4590 hc        1 MOL      0.094907
    141 H66         2.5760   -4.7500   -1.0690 hc        1 MOL      0.094907
    142 N13         3.1890   -0.6090   -1.8000 n         1 MOL     -0.663479
    143 C46         4.6260   -0.7750   -1.7080 c3        1 MOL      0.110696
    144 C47         5.1680   -2.0450   -2.4210 c         1 MOL      0.892142
    145 O19         4.8190   -2.2570   -3.5320 o         1 MOL     -0.600756
    146 C48         5.3380    0.3990   -2.2770 c3        1 MOL     -0.221755
    147 H67         2.9130    0.1650   -2.3860 hn        1 MOL      0.367899
    148 H68         4.9340   -0.8070   -0.6670 h1        1 MOL      0.108785
    149 H69         4.9630    1.3450   -1.8720 hc        1 MOL      0.069247
    150 H70         6.3300    0.3560   -1.8450 hc        1 MOL      0.069247
    151 H71         5.3770    0.3810   -3.3650 hc        1 MOL      0.069247
    152 N14         5.9280   -2.9700   -1.7730 n         1 MOL     -0.818747
    153 C49         6.4380   -2.8080   -0.4210 c3        1 MOL     -0.221678
    154 C50         6.8210   -4.0910    0.3460 c         1 MOL      0.644579
    155 O20         6.9360   -4.0440    1.5540 o         1 MOL     -0.547483
    156 C51         7.7660   -1.9760   -0.4100 c3        1 MOL      0.188979
    157 C52         9.0740   -2.4510   -1.1450 c3        1 MOL     -0.248560
    158 C53         8.9220   -2.7120   -2.6580 c         1 MOL      0.726069
    159 O21         8.9350   -1.7680   -3.4930 o         1 MOL     -0.689941
    160 O22         8.8150   -3.9020   -3.0630 o         1 MOL     -0.689941
    161 H72         6.2690   -3.6590   -2.4270 hn        1 MOL      0.383051
    162 H73         5.7640   -2.2980    0.2700 h1        1 MOL      0.118499
    163 H74         7.9100   -1.8250    0.6590 hc        1 MOL     -0.037957
    164 H75         7.5810   -1.0110   -0.8970 hc        1 MOL     -0.037957
    165 H76         9.4370   -3.4020   -0.7490 hc        1 MOL      0.037921
    166 H77         9.8640   -1.7480   -0.8790 hc        1 MOL      0.037921
    167 N15         7.0140   -5.2460   -0.3710 n         1 MOL     -0.315996
    168 C54         7.3530   -6.5430    0.2730 c3        1 MOL     -0.196429
    169 H78         6.6550   -6.7370    1.0870 h1        1 MOL      0.095205
    170 H79         7.2830   -7.3440   -0.4630 h1        1 MOL      0.095205
    171 H80         8.3680   -6.4990    0.6670 h1        1 MOL      0.095205
    172 H81         6.8130   -5.1910   -1.3610 hn        1 MOL      0.279487
    173 Ca1        -1.5570    0.0910   -0.9290 Ca        1 MOL      1.747764
    174 O23        -1.2320   -2.7800   -1.3110 oh        1 MOL     -0.865789
    175 H82        -0.8880   -3.4280   -0.7000 ho        1 MOL      0.436029
    176 H83        -0.7790   -2.9520   -2.1360 ho        1 MOL      0.436029
    177 O24        -2.2070   -0.8320   -3.2940 oh        1 MOL     -0.865789
    178 H84        -2.6080   -0.2700   -3.9730 ho        1 MOL      0.436029
    179 H85        -2.5760   -1.6930   -3.4500 ho        1 MOL      0.436029
@<TRIPOS>BOND
     1    1    2 1   
     2    1    4 1   
     3    1    5 1   
     4    1    6 1   
     5    2    3 2   
     6    2    7 1   
     7    7    8 1   
     8    7   15 1   
     9    8    9 1   
    10    8   11 1   
    11    8   16 1   
    12    9   10 2   
    13    9   19 1   
    14   11   12 1   
    15   11   17 1   
    16   11   18 1   
    17   12   13 1   
    18   12   14 1   
    19   19   20 1   
    20   19   28 1   
    21   20   21 1   
    22   20   23 1   
    23   20   29 1   
    24   21   22 2   
    25   21   41 1   
    26   23   24 1   
    27   23   30 1   
    28   23   31 1   
    29   24   25 1   
    30   24   32 1   
    31   24   33 1   
    32   25   26 1   
    33   25   34 1   
    34   25   35 1   
    35   26   27 1   
    36   26   36 1   
    37   26   37 1   
    38   27   38 1   
    39   27   39 1   
    40   27   40 1   
    41   41   42 1   
    42   41   49 1   
    43   42   43 1   
    44   42   45 1   
    45   42   50 1   
    46   43   44 2   
    47   43   53 1   
    48   45   46 1   
    49   45   51 1   
    50   45   52 1   
    51   46   47 1   
    52   46   48 1   
    53   53   54 1   
    54   53   57 1   
    55   54   55 1   
    56   54   58 1   
    57   54   59 1   
    58   55   56 2   
    59   55   60 1   
    60   60   61 1   
    61   60   68 1   
    62   61   62 1   
    63   61   64 1   
    64   61   69 1   
    65   62   63 2   
    66   62   74 1   
    67   64   65 1   
    68   64   70 1   
    69   64   71 1   
    70   65   66 1   
    71   65   67 2   
    72   66   72 1   
    73   66   73 1   
    74   74   75 1   
    75   74   78 1   
    76   75   76 1   
    77   75   79 1   
    78   75   80 1   
    79   76   77 2   
    80   76   81 1   
    81   81   82 1   
    82   81   93 1   
    83   82   83 1   
    84   82   85 1   
    85   82   94 1   
    86   83   84 2   
    87   83  102 1   
    88   85   86 1   
    89   85   95 1   
    90   85   96 1   
    91   86   87 ar  
    92   86   88 ar  
    93   87   89 ar  
    94   87   97 1   
    95   88   90 ar  
    96   88   98 1   
    97   89   91 ar  
    98   89   99 1   
    99   90   91 ar  
   100   90  100 1   
   101   91   92 1   
   102   92  101 1   
   103  102  103 1   
   104  102  110 1   
   105  103  104 1   
   106  103  106 1   
   107  103  111 1   
   108  104  105 2   
   109  104  121 1   
   110  106  107 1   
   111  106  108 1   
   112  106  112 1   
   113  107  109 1   
   114  107  113 1   
   115  107  114 1   
   116  108  115 1   
   117  108  116 1   
   118  108  117 1   
   119  109  118 1   
   120  109  119 1   
   121  109  120 1   
   122  121  122 1   
   123  121  127 1   
   124  122  123 1   
   125  122  125 1   
   126  122  128 1   
   127  123  124 2   
   128  123  132 1   
   129  125  126 1   
   130  125  129 1   
   131  125  130 1   
   132  126  131 1   
   133  132  133 1   
   134  132  137 1   
   135  133  134 1   
   136  133  136 1   
   137  133  138 1   
   138  134  135 2   
   139  134  142 1   
   140  136  139 1   
   141  136  140 1   
   142  136  141 1   
   143  142  143 1   
   144  142  147 1   
   145  143  144 1   
   146  143  146 1   
   147  143  148 1   
   148  144  145 2   
   149  144  152 1   
   150  146  149 1   
   151  146  150 1   
   152  146  151 1   
   153  152  153 1   
   154  152  161 1   
   155  153  154 1   
   156  153  156 1   
   157  153  162 1   
   158  154  155 2   
   159  154  167 1   
   160  156  157 1   
   161  156  163 1   
   162  156  164 1   
   163  157  158 1   
   164  157  165 1   
   165  157  166 1   
   166  158  159 1   
   167  158  160 1   
   168  167  168 1   
   169  167  172 1   
   170  168  169 1   
   171  168  170 1   
   172  168  171 1   
   173  174  175 1   
   174  174  176 1   
   175  177  178 1   
   176  177  179 1   
@<TRIPOS>SUBSTRUCTURE
     1 MOL         1 TEMP              0 ****  ****    0 ROOT
