@<TRIPOS>MOLECULE
MOL
  185   180     1     0     0
SMALL
resp


@<TRIPOS>ATOM
      1 C1         -4.4660    2.9470   -3.3020 c3        1 MOL     -0.366458
      2 C2         -5.6570    2.4340   -2.4980 c         1 MOL      0.601730
      3 O1         -5.4500    1.9140   -1.3980 o         1 MOL     -0.480667
      4 H1         -4.6330    2.7550   -4.3610 hc        1 MOL      0.096097
      5 H2         -4.3530    4.0190   -3.1410 hc        1 MOL      0.096097
      6 H3         -3.5600    2.4330   -2.9780 hc        1 MOL      0.096097
      7 N1         -6.8890    2.6950   -3.0190 n         1 MOL     -0.611567
      8 C3         -8.2690    2.3800   -2.4100 c3        1 MOL      0.136788
      9 C4         -8.4170    0.9510   -1.8000 c         1 MOL      0.393296
     10 O2         -9.3350    0.7110   -0.9920 o         1 MOL     -0.457041
     11 C5         -8.7340    3.5310   -1.5270 c3        1 MOL     -0.150804
     12 C6        -10.2150    3.4880   -1.3340 c         1 MOL      0.698924
     13 O3        -10.7270    3.9070   -0.2810 o         1 MOL     -0.687320
     14 O4        -10.9280    3.1720   -2.3180 o         1 MOL     -0.687320
     15 H4         -6.9300    3.2020   -3.8860 hn        1 MOL      0.345995
     16 H5         -8.8980    2.3450   -3.3030 h1        1 MOL      0.024269
     17 H6         -8.4970    4.4420   -2.0670 hc        1 MOL      0.051206
     18 H7         -8.3260    3.6210   -0.5220 hc        1 MOL      0.051206
     19 N2         -7.4750    0.0190   -2.1050 n         1 MOL     -0.211225
     20 C7         -7.4420   -1.3300   -1.5270 c3        1 MOL     -0.009909
     21 C8         -6.2050   -1.7320   -0.7240 c         1 MOL      0.491696
     22 O5         -6.1160   -2.9000   -0.3930 o         1 MOL     -0.578110
     23 C9         -7.7710   -2.4270   -2.5550 c3        1 MOL     -0.145846
     24 C10        -9.2810   -2.4330   -3.0050 c3        1 MOL     -0.031473
     25 C11       -10.2050   -3.1730   -1.9620 c3        1 MOL     -0.004550
     26 C12       -11.6630   -3.0280   -2.4600 c3        1 MOL      0.021343
     27 N3        -12.6180   -3.6370   -1.4800 n4        1 MOL     -0.309651
     28 H8         -6.9210    0.2270   -2.9170 hn        1 MOL      0.205109
     29 H9         -8.2380   -1.3550   -0.7930 h1        1 MOL      0.101492
     30 H10        -7.6180   -3.4520   -2.2380 hc        1 MOL      0.071357
     31 H11        -7.2320   -2.3000   -3.4960 hc        1 MOL      0.071357
     32 H12        -9.4200   -2.9410   -3.9490 hc        1 MOL      0.017071
     33 H13        -9.6690   -1.4110   -3.0520 hc        1 MOL      0.017071
     34 H14       -10.2010   -2.6440   -1.0020 hc        1 MOL      0.045927
     35 H15        -9.8280   -4.1800   -1.8080 hc        1 MOL      0.045927
     36 H16       -11.7140   -3.6080   -3.3780 hx        1 MOL      0.091010
     37 H17       -11.9210   -1.9850   -2.6520 hx        1 MOL      0.091010
     38 H18       -12.4560   -4.6200   -1.3190 hn        1 MOL      0.281250
     39 H19       -12.6200   -3.1940   -0.5790 hn        1 MOL      0.281250
     40 H20       -13.5960   -3.4750   -1.6750 hn        1 MOL      0.281250
     41 N4         -5.1820   -0.8950   -0.4670 n         1 MOL     -0.203903
     42 C13        -3.9380   -1.2530    0.2980 c3        1 MOL     -0.113605
     43 C14        -4.2190   -1.2620    1.8020 c         1 MOL      0.540006
     44 O6         -4.8550   -0.2880    2.3260 o         1 MOL     -0.499429
     45 C15        -2.8100   -0.3550   -0.1670 c3        1 MOL     -0.268764
     46 C16        -1.5220   -0.7210    0.4610 c         1 MOL      0.710064
     47 O7         -1.4880   -0.5670    1.7220 o         1 MOL     -0.700191
     48 O8         -0.4980   -1.2090   -0.0790 o         1 MOL     -0.700191
     49 H21        -5.3110    0.0440   -0.8130 hn        1 MOL      0.120607
     50 H22        -3.6610   -2.2690    0.0170 h1        1 MOL      0.110416
     51 H23        -3.0640    0.6860    0.0280 hc        1 MOL      0.122140
     52 H24        -2.6660   -0.3320   -1.2530 hc        1 MOL      0.122140
     53 N5         -3.8270   -2.2970    2.5520 n         1 MOL     -0.301494
     54 C17        -4.0730   -2.4220    3.9850 c3        1 MOL     -0.054819
     55 C18        -3.7840   -1.0730    4.7130 c         1 MOL      0.465464
     56 O9         -4.4470   -0.7090    5.6590 o         1 MOL     -0.545683
     57 H25        -3.4360   -3.0980    2.0890 hn        1 MOL      0.246499
     58 H26        -3.3840   -3.1440    4.4260 h1        1 MOL      0.061095
     59 H27        -5.1240   -2.5900    4.2590 h1        1 MOL      0.061095
     60 N6         -2.7530   -0.3560    4.2920 n         1 MOL     -0.144728
     61 C19        -2.2910    0.8690    4.9640 c3        1 MOL     -0.107868
     62 C20        -2.1090    2.2110    4.1520 c         1 MOL      0.524283
     63 O10        -1.5090    3.1550    4.6650 o         1 MOL     -0.526313
     64 C21        -1.0270    0.4170    5.7580 c3        1 MOL     -0.110819
     65 C22         0.2400    0.2610    4.8510 c         1 MOL      0.478588
     66 N7          1.0290    1.2580    4.9030 n         1 MOL     -0.628632
     67 O11         0.4540   -0.8040    4.2630 o         1 MOL     -0.562652
     68 H28        -2.2960   -0.5810    3.4260 hn        1 MOL      0.166909
     69 H29        -3.1050    1.1510    5.6420 h1        1 MOL      0.119277
     70 H30        -1.1400   -0.4950    6.3460 hc        1 MOL      0.061536
     71 H31        -0.8700    1.2700    6.4180 hc        1 MOL      0.061536
     72 H32         0.8550    2.0160    5.5480 hn        1 MOL      0.339889
     73 H33         1.8590    1.2180    4.3340 hn        1 MOL      0.339889
     74 N8         -2.5050    2.1320    2.8730 n         1 MOL     -0.333096
     75 C23        -2.0810    3.0870    1.8150 c3        1 MOL     -0.051026
     76 C24        -0.5510    3.1770    1.5430 c         1 MOL      0.803324
     77 O12         0.2670    2.4670    2.0730 o         1 MOL     -0.585923
     78 H34        -2.9020    1.2570    2.5640 hn        1 MOL      0.218787
     79 H35        -2.2950    4.0640    2.2400 h1        1 MOL      0.074313
     80 H36        -2.6090    2.9260    0.8780 h1        1 MOL      0.074313
     81 N9         -0.2140    4.0910    0.5950 n         1 MOL     -0.831764
     82 C25         1.1410    4.2870    0.1820 c3        1 MOL      0.492643
     83 C26         1.4540    3.1920   -0.8650 c         1 MOL      0.613044
     84 O13         0.6250    2.5970   -1.5080 o         1 MOL     -0.523087
     85 C27         1.3590    5.7210   -0.3230 c3        1 MOL     -0.365113
     86 C28         2.7810    6.0580   -0.7890 ca        1 MOL      0.086841
     87 C29         3.9250    5.8410    0.0860 ca        1 MOL     -0.180061
     88 C30         2.9690    6.4180   -2.1520 ca        1 MOL     -0.180061
     89 C31         5.2740    6.0180   -0.3770 ca        1 MOL     -0.222484
     90 C32         4.2590    6.4980   -2.6010 ca        1 MOL     -0.222484
     91 C33         5.3760    6.2800   -1.7920 ca        1 MOL      0.309559
     92 O14         6.5740    6.1250   -2.3740 oh        1 MOL     -0.505969
     93 H37        -0.9400    4.7430    0.3330 hn        1 MOL      0.352874
     94 H38         1.8500    4.1990    1.0000 h1        1 MOL     -0.048359
     95 H39         1.1890    6.3410    0.5610 hc        1 MOL      0.121950
     96 H40         0.6450    5.8650   -1.1240 hc        1 MOL      0.121950
     97 H41         3.6650    5.4600    1.0660 ha        1 MOL      0.156605
     98 H42         2.1790    6.5810   -2.8810 ha        1 MOL      0.156605
     99 H43         6.0950    5.8130    0.2850 ha        1 MOL      0.142072
    100 H44         4.4160    6.6570   -3.6590 ha        1 MOL      0.142072
    101 H45         6.5740    6.4620   -3.2770 ho        1 MOL      0.388298
    102 N10         2.7840    2.8860   -0.9500 n         1 MOL     -0.453001
    103 C34         3.3730    1.6080   -1.3700 c3        1 MOL     -0.046596
    104 C35         4.5220    1.2130   -0.3530 c         1 MOL      0.371840
    105 O15         4.5830    0.0260    0.0580 o         1 MOL     -0.447862
    106 C36         4.0300    1.8480   -2.7890 c3        1 MOL     -0.006476
    107 C37         2.9690    2.1580   -3.9260 c3        1 MOL     -0.034356
    108 C38         4.9240    0.6480   -3.1950 c3        1 MOL     -0.303898
    109 C39         3.4330    2.3390   -5.4110 c3        1 MOL      0.061826
    110 H46         3.4120    3.5960   -0.6170 hn        1 MOL      0.121031
    111 H47         2.5670    0.8740   -1.4140 h1        1 MOL      0.208917
    112 H48         4.7380    2.6760   -2.8200 hc        1 MOL      0.034180
    113 H49         2.4190    3.0310   -3.5880 hc        1 MOL      0.039968
    114 H50         2.2480    1.3400   -3.9720 hc        1 MOL      0.039968
    115 H51         4.3760   -0.2920   -3.0840 hc        1 MOL      0.089120
    116 H52         5.3150    0.7030   -4.2150 hc        1 MOL      0.089120
    117 H53         5.7710    0.5190   -2.5320 hc        1 MOL      0.089120
    118 H54         3.9030    3.3180   -5.4270 hc        1 MOL     -0.015422
    119 H55         4.1450    1.6270   -5.8260 hc        1 MOL     -0.015422
    120 H56         2.5560    2.4470   -6.0440 hc        1 MOL     -0.015422
    121 N11         5.1940    2.1510    0.3010 n         1 MOL     -0.439373
    122 C40         6.2240    1.8390    1.3590 c3        1 MOL      0.210383
    123 C41         7.2360    0.7270    0.8560 c         1 MOL      0.259226
    124 O16         7.6940   -0.0330    1.7020 o         1 MOL     -0.465051
    125 C42         7.1260    2.9540    1.7920 c3        1 MOL      0.330406
    126 O17         6.4990    4.1130    2.1560 oh        1 MOL     -0.642161
    127 H57         5.4430    3.0560   -0.0740 hn        1 MOL      0.346691
    128 H58         5.7320    1.4630    2.2540 h1        1 MOL      0.049499
    129 H59         7.7800    3.2410    0.9690 h1        1 MOL     -0.029809
    130 H60         7.7070    2.5730    2.6330 h1        1 MOL     -0.029809
    131 H61         7.1810    4.7830    2.2610 ho        1 MOL      0.420362
    132 N12         7.5810    0.7000   -0.4530 n         1 MOL     -0.210368
    133 C43         8.4860   -0.2730   -1.1230 c3        1 MOL      0.185270
    134 C44         8.3020   -1.7190   -0.6710 c         1 MOL      0.541530
    135 O18         9.1880   -2.5500   -0.5500 o         1 MOL     -0.534387
    136 C45         9.9120    0.2980   -0.9560 c3        1 MOL     -0.431380
    137 H62         7.0350    1.3130   -1.0440 hn        1 MOL      0.154336
    138 H63         8.2420   -0.3630   -2.1720 h1        1 MOL      0.056433
    139 H64         9.9230    1.3940   -0.9270 hc        1 MOL      0.120929
    140 H65        10.3100    0.0650    0.0240 hc        1 MOL      0.120929
    141 H66        10.5490   -0.1790   -1.6990 hc        1 MOL      0.120929
    142 N13         7.0150   -2.1270   -0.5870 n         1 MOL     -0.388881
    143 C46         6.4900   -3.4350   -0.1960 c3        1 MOL      0.268773
    144 C47         5.3610   -3.9730   -1.0640 c         1 MOL      0.338745
    145 O19         4.5910   -3.2850   -1.6520 o         1 MOL     -0.378168
    146 C48         6.1090   -3.3170    1.2710 c3        1 MOL     -0.376724
    147 H67         6.2980   -1.4270   -0.7050 hn        1 MOL      0.090759
    148 H68         7.3280   -4.1290   -0.3150 h1        1 MOL      0.024356
    149 H69         5.5770   -4.1910    1.6570 hc        1 MOL      0.110926
    150 H70         7.0270   -3.1470    1.8250 hc        1 MOL      0.110926
    151 H71         5.4920   -2.4190    1.3050 hc        1 MOL      0.110926
    152 N14         5.2070   -5.3030   -1.0440 n         1 MOL     -0.359467
    153 C49         4.0640   -5.9590   -1.7570 c3        1 MOL     -0.340336
    154 C50         4.1070   -5.7390   -3.3250 c         1 MOL      0.488061
    155 O20         3.0520   -5.6750   -4.0360 o         1 MOL     -0.480641
    156 C51         2.6430   -5.5940   -1.1850 c3        1 MOL      0.388525
    157 C52         2.4070   -5.6030    0.3210 c3        1 MOL     -0.085466
    158 C53         0.8790   -5.3750    0.5020 c         1 MOL      0.491883
    159 O21         0.1230   -6.3250    0.1850 o         1 MOL     -0.632226
    160 O22         0.4120   -4.2370    0.7340 o         1 MOL     -0.632226
    161 H72         5.9470   -5.8480   -0.6220 hn        1 MOL      0.282468
    162 H73         4.1610   -7.0410   -1.6470 h1        1 MOL      0.149982
    163 H74         1.9570   -6.3290   -1.6050 hc        1 MOL     -0.024109
    164 H75         2.3410   -4.6370   -1.6230 hc        1 MOL     -0.024109
    165 H76         3.0070   -4.8450    0.8230 hc        1 MOL     -0.032006
    166 H77         2.6750   -6.5920    0.6650 hc        1 MOL     -0.032006
    167 N15         5.3330   -5.5330   -3.8870 n         1 MOL     -0.351446
    168 C54         5.5650   -4.9670   -5.2150 c3        1 MOL     -0.155953
    169 H78         5.0030   -5.5370   -5.9550 h1        1 MOL      0.097625
    170 H79         5.2360   -3.9280   -5.2300 h1        1 MOL      0.097625
    171 H80         6.6280   -5.0160   -5.4500 h1        1 MOL      0.097625
    172 H81         6.0680   -5.4620   -3.2050 hn        1 MOL      0.249171
    173 Ca1         0.7050   -1.9980    2.0530 Ca        1 MOL      1.687696
    174 O23        -1.0000   -3.2350    3.6430 oh        1 MOL     -0.868517
    175 H82        -1.0070   -3.2720    4.6030 ho        1 MOL      0.422311
    176 H83        -1.6000   -3.9190    3.3690 ho        1 MOL      0.422311
    177 O24         2.5790   -3.2350    3.4840 oh        1 MOL     -0.868517
    178 H84         2.9640   -2.8740    4.2790 ho        1 MOL      0.422311
    179 H85         3.1740   -3.9520    3.2390 ho        1 MOL      0.422311
    180 O25         1.6460    0.2930    1.6520 oh        1 MOL     -0.868517
    181 H86         2.3440    0.4310    2.2870 ho        1 MOL      0.422311
    182 H87         1.0740    1.0560    1.7530 ho        1 MOL      0.422311
    183 O26         2.6590   -2.1370    0.3590 oh        1 MOL     -0.868517
    184 H88         2.8450   -2.7810   -0.3310 ho        1 MOL      0.422311
    185 H89         3.3630   -1.5010    0.2970 ho        1 MOL      0.422311
@<TRIPOS>BOND
     1    1    2 1   
     2    1    4 1   
     3    1    5 1   
     4    1    6 1   
     5    2    3 2   
     6    2    7 1   
     7    7    8 1   
     8    7   15 1   
     9    8    9 1   
    10    8   11 1   
    11    8   16 1   
    12    9   10 2   
    13    9   19 1   
    14   11   12 1   
    15   11   17 1   
    16   11   18 1   
    17   12   13 1   
    18   12   14 1   
    19   19   20 1   
    20   19   28 1   
    21   20   21 1   
    22   20   23 1   
    23   20   29 1   
    24   21   22 2   
    25   21   41 1   
    26   23   24 1   
    27   23   30 1   
    28   23   31 1   
    29   24   25 1   
    30   24   32 1   
    31   24   33 1   
    32   25   26 1   
    33   25   34 1   
    34   25   35 1   
    35   26   27 1   
    36   26   36 1   
    37   26   37 1   
    38   27   38 1   
    39   27   39 1   
    40   27   40 1   
    41   41   42 1   
    42   41   49 1   
    43   42   43 1   
    44   42   45 1   
    45   42   50 1   
    46   43   44 2   
    47   43   53 1   
    48   45   46 1   
    49   45   51 1   
    50   45   52 1   
    51   46   47 1   
    52   46   48 1   
    53   53   54 1   
    54   53   57 1   
    55   54   55 1   
    56   54   58 1   
    57   54   59 1   
    58   55   56 2   
    59   55   60 1   
    60   60   61 1   
    61   60   68 1   
    62   61   62 1   
    63   61   64 1   
    64   61   69 1   
    65   62   63 2   
    66   62   74 1   
    67   64   65 1   
    68   64   70 1   
    69   64   71 1   
    70   65   66 1   
    71   65   67 2   
    72   66   72 1   
    73   66   73 1   
    74   74   75 1   
    75   74   78 1   
    76   75   76 1   
    77   75   79 1   
    78   75   80 1   
    79   76   77 2   
    80   76   81 1   
    81   81   82 1   
    82   81   93 1   
    83   82   83 1   
    84   82   85 1   
    85   82   94 1   
    86   83   84 2   
    87   83  102 1   
    88   85   86 1   
    89   85   95 1   
    90   85   96 1   
    91   86   87 ar  
    92   86   88 ar  
    93   87   89 ar  
    94   87   97 1   
    95   88   90 ar  
    96   88   98 1   
    97   89   91 ar  
    98   89   99 1   
    99   90   91 ar  
   100   90  100 1   
   101   91   92 1   
   102   92  101 1   
   103  102  103 1   
   104  102  110 1   
   105  103  104 1   
   106  103  106 1   
   107  103  111 1   
   108  104  105 2   
   109  104  121 1   
   110  106  107 1   
   111  106  108 1   
   112  106  112 1   
   113  107  109 1   
   114  107  113 1   
   115  107  114 1   
   116  108  115 1   
   117  108  116 1   
   118  108  117 1   
   119  109  118 1   
   120  109  119 1   
   121  109  120 1   
   122  121  122 1   
   123  121  127 1   
   124  122  123 1   
   125  122  125 1   
   126  122  128 1   
   127  123  124 2   
   128  123  132 1   
   129  125  126 1   
   130  125  129 1   
   131  125  130 1   
   132  126  131 1   
   133  132  133 1   
   134  132  137 1   
   135  133  134 1   
   136  133  136 1   
   137  133  138 1   
   138  134  135 2   
   139  134  142 1   
   140  136  139 1   
   141  136  140 1   
   142  136  141 1   
   143  142  143 1   
   144  142  147 1   
   145  143  144 1   
   146  143  146 1   
   147  143  148 1   
   148  144  145 2   
   149  144  152 1   
   150  146  149 1   
   151  146  150 1   
   152  146  151 1   
   153  152  153 1   
   154  152  161 1   
   155  153  154 1   
   156  153  156 1   
   157  153  162 1   
   158  154  155 2   
   159  154  167 1   
   160  156  157 1   
   161  156  163 1   
   162  156  164 1   
   163  157  158 1   
   164  157  165 1   
   165  157  166 1   
   166  158  159 1   
   167  158  160 1   
   168  167  168 1   
   169  167  172 1   
   170  168  169 1   
   171  168  170 1   
   172  168  171 1   
   173  174  175 1   
   174  174  176 1   
   175  177  178 1   
   176  177  179 1   
   177  180  181 1   
   178  180  182 1   
   179  183  184 1   
   180  183  185 1   
@<TRIPOS>SUBSTRUCTURE
     1 MOL         1 TEMP              0 ****  ****    0 ROOT
