@<TRIPOS>MOLECULE
MOL
  181   177     1     0     0
SMALL
resp


@<TRIPOS>ATOM
      1 C1         11.8420   -6.6790   -0.5630 c3        1 MOL     -0.338552
      2 C2         11.0470   -5.4580   -0.9920 c         1 MOL      0.708074
      3 O1         10.4750   -5.4980   -2.1170 o         1 MOL     -0.585896
      4 H1         12.6600   -6.8430   -1.2620 hc        1 MOL      0.090818
      5 H2         12.2460   -6.5180    0.4360 hc        1 MOL      0.090818
      6 H3         11.1900   -7.5530   -0.5550 hc        1 MOL      0.090818
      7 N1         10.9670   -4.3200   -0.2810 n         1 MOL     -0.569081
      8 C3         11.2720   -4.0800    1.1440 c3        1 MOL      0.156068
      9 C4         12.0800   -2.7370    1.2660 c         1 MOL      0.487824
     10 O2         12.9690   -2.5220    2.0910 o         1 MOL     -0.560364
     11 C5          9.9750   -4.1090    1.9110 c3        1 MOL     -0.109474
     12 C6          8.9190   -3.1890    1.4150 c         1 MOL      0.739875
     13 O3          7.7420   -3.5630    1.5040 o         1 MOL     -0.737640
     14 O4          9.1400   -1.9980    1.1130 o         1 MOL     -0.737640
     15 H4         10.6360   -3.5580   -0.8480 hn        1 MOL      0.232783
     16 H5         11.8470   -4.8910    1.5800 h1        1 MOL      0.028204
     17 H6         10.1880   -3.8860    2.9580 hc        1 MOL      0.033605
     18 H7          9.5570   -5.1060    1.8310 hc        1 MOL      0.033605
     19 N2         11.8380   -1.8140    0.3400 n         1 MOL     -0.479562
     20 C7         12.5370   -0.5540    0.1200 c3        1 MOL      0.296125
     21 C8         11.6730    0.7570   -0.1320 c         1 MOL      0.289540
     22 O5         12.2160    1.8330   -0.3460 o         1 MOL     -0.531050
     23 C9         13.2360   -0.9340   -1.1670 c3        1 MOL     -0.293944
     24 H8         11.0680   -1.9310   -0.3000 hn        1 MOL      0.380789
     25 H9         13.2560   -0.2590    0.8910 h1        1 MOL      0.055500
     26 H10        13.9270   -1.7730   -1.1440 hc        1 MOL      0.073680
     27 H11        12.4490   -1.0440   -1.9140 hc        1 MOL      0.073680
     28 H12        13.8160   -0.0940   -1.5620 hc        1 MOL      0.073680
     29 N3         10.3490    0.7020   -0.1280 n         1 MOL     -0.047257
     30 C10         9.4660    1.8710   -0.3330 c3        1 MOL     -0.004646
     31 C11         8.2820    2.1010    0.5630 c         1 MOL      0.457366
     32 O6          7.7580    1.1040    1.0920 o         1 MOL     -0.545125
     33 C12         8.9650    1.8530   -1.7830 c3        1 MOL      0.003609
     34 C13         8.2120    0.5120   -2.1910 c         1 MOL      0.625492
     35 O7          7.7020   -0.2870   -1.2730 o         1 MOL     -0.671018
     36 O8          7.9810    0.2150   -3.3780 o         1 MOL     -0.671018
     37 H13         9.8330   -0.1610   -0.0400 hn        1 MOL     -0.000578
     38 H14        10.0760    2.7670   -0.2640 h1        1 MOL      0.040130
     39 H15         9.7440    2.0490   -2.5220 hc        1 MOL      0.008158
     40 H16         8.2350    2.6700   -1.8610 hc        1 MOL      0.008158
     41 N4          7.8590    3.3530    0.7350 n         1 MOL     -0.368140
     42 C14         6.5740    3.6800    1.3020 c3        1 MOL     -0.077181
     43 C15         5.4700    3.5190    0.2380 c         1 MOL      0.575750
     44 O9          5.7140    3.8600   -0.9370 o         1 MOL     -0.554179
     45 H17         8.4780    4.1090    0.4930 hn        1 MOL      0.304415
     46 H18         6.5090    4.6870    1.7110 h1        1 MOL      0.074032
     47 H19         6.3430    2.9450    2.0610 h1        1 MOL      0.074032
     48 N5          4.3320    2.9910    0.5730 n         1 MOL     -0.499313
     49 C16         3.2170    2.8800   -0.3770 c3        1 MOL      0.308811
     50 C17         1.9270    3.4170    0.2550 c         1 MOL      0.411397
     51 O10         1.7890    3.5170    1.4920 o         1 MOL     -0.520539
     52 C18         3.0590    1.4010   -0.9110 c3        1 MOL     -0.219203
     53 C19         4.3070    0.6450   -1.4680 c         1 MOL      0.482822
     54 N6          4.7560    1.1260   -2.6190 n         1 MOL     -0.621503
     55 O11         4.7380   -0.4140   -0.9540 o         1 MOL     -0.491216
     56 H20         4.1940    2.8650    1.5600 hn        1 MOL      0.248069
     57 H21         3.4530    3.5630   -1.1930 h1        1 MOL      0.010323
     58 H22         2.3660    1.4720   -1.7490 hc        1 MOL      0.103804
     59 H23         2.5850    0.7250   -0.1910 hc        1 MOL      0.103804
     60 H24         4.2430    1.8810   -3.0490 hn        1 MOL      0.345062
     61 H25         5.5760    0.6640   -2.9920 hn        1 MOL      0.345062
     62 N7          1.0450    3.8270   -0.6260 n         1 MOL     -0.565568
     63 C20        -0.2490    4.3820   -0.1710 c3        1 MOL      0.454393
     64 C21        -0.6700    5.5500   -0.9950 c         1 MOL      0.330207
     65 O12        -0.1080    5.7840   -2.0860 o         1 MOL     -0.551912
     66 H26         1.1780    3.7650   -1.6210 hn        1 MOL      0.323182
     67 H27        -0.2160    4.6550    0.8810 h1        1 MOL      0.018303
     68 H28        -1.0310    3.6350   -0.2550 h1        1 MOL      0.018303
     69 N8         -1.6720    6.3270   -0.5890 n         1 MOL     -0.254380
     70 C22        -2.3560    6.4220    0.6730 c3        1 MOL     -0.522905
     71 C23        -3.3980    5.2570    0.8880 c         1 MOL      0.738447
     72 O13        -3.8690    4.9700    2.0210 o         1 MOL     -0.563721
     73 C24        -3.0140    7.7610    0.8910 c3        1 MOL      0.412405
     74 C25        -2.1090    8.9330    0.9820 c3        1 MOL     -0.131992
     75 O14        -3.9370    7.9860   -0.1330 oh        1 MOL     -0.642570
     76 H29        -2.0830    6.9400   -1.2750 hn        1 MOL      0.315785
     77 H30        -1.5970    6.3170    1.4500 h1        1 MOL      0.179317
     78 H31        -3.5260    7.6530    1.8500 h1        1 MOL      0.016517
     79 H32        -4.7900    8.2500    0.2240 ho        1 MOL      0.399224
     80 H33        -1.5790    8.9930    1.9250 hc        1 MOL      0.033220
     81 H34        -1.4450    9.1530    0.1450 hc        1 MOL      0.033220
     82 H35        -2.6510    9.8710    1.0850 hc        1 MOL      0.033220
     83 N9         -3.7410    4.6430   -0.2090 n         1 MOL     -0.647760
     84 C26        -4.8240    3.5960   -0.3420 c3        1 MOL      0.030184
     85 C27        -4.1880    2.2060   -0.0690 c         1 MOL      0.543066
     86 O15        -3.1100    2.0030   -0.6190 o         1 MOL     -0.504585
     87 C28        -5.4410    3.6530   -1.7480 c3        1 MOL      0.097210
     88 C29        -5.7360    5.1060   -2.0800 c3        1 MOL      0.059127
     89 C30        -6.6650    2.6800   -1.8350 c3        1 MOL      0.002541
     90 C31        -6.3640    5.2790   -3.4500 c3        1 MOL     -0.167022
     91 H36        -3.3090    5.0400   -1.0300 hn        1 MOL      0.326159
     92 H37        -5.6620    3.7860    0.3310 h1        1 MOL      0.052869
     93 H38        -4.7880    3.1360   -2.4540 hc        1 MOL      0.033803
     94 H39        -4.7640    5.6070   -2.0930 hc        1 MOL     -0.003916
     95 H40        -6.4940    5.5160   -1.4160 hc        1 MOL     -0.003916
     96 H41        -7.3530    2.8340   -0.9950 hc        1 MOL      0.002627
     97 H42        -7.2190    2.7580   -2.7590 hc        1 MOL      0.002627
     98 H43        -6.2320    1.6890   -1.7340 hc        1 MOL      0.002627
     99 H44        -5.8510    4.6260   -4.1530 hc        1 MOL      0.028025
    100 H45        -7.4240    5.0350   -3.4660 hc        1 MOL      0.028025
    101 H46        -6.2180    6.3140   -3.7710 hc        1 MOL      0.028025
    102 N10        -4.8560    1.2680    0.6190 n         1 MOL     -0.329933
    103 C32        -6.0810    1.4140    1.3220 c3        1 MOL      0.028801
    104 C33        -6.9360    0.1430    1.1680 c         1 MOL      0.685492
    105 O16        -6.4030   -0.8490    0.7190 o         1 MOL     -0.543967
    106 C34        -5.8450    1.6440    2.8640 c3        1 MOL     -0.232550
    107 C35        -4.8660    0.6050    3.4670 c         1 MOL      0.721827
    108 O17        -5.3680   -0.4150    4.0400 o         1 MOL     -0.722897
    109 O18        -3.6160    0.8800    3.5390 o         1 MOL     -0.722897
    110 H47        -4.4990    0.3200    0.5950 hn        1 MOL      0.289627
    111 H48        -6.7240    2.1940    0.9190 h1        1 MOL      0.040444
    112 H49        -6.7660    1.7020    3.4450 hc        1 MOL      0.028552
    113 H50        -5.3850    2.6240    2.8870 hc        1 MOL      0.028552
    114 N11        -8.2440    0.2010    1.5190 n         1 MOL     -0.837315
    115 C36        -9.1860   -0.8700    1.2580 c3        1 MOL      0.757904
    116 C37        -9.4420   -0.9830   -0.2780 c         1 MOL      0.117553
    117 O19        -9.4960    0.0820   -0.9390 o         1 MOL     -0.534540
    118 C38       -10.5150   -0.6560    2.0250 c3        1 MOL     -0.362236
    119 C39       -11.7080   -1.6490    1.6990 ca        1 MOL      0.195772
    120 C40       -12.0150   -2.5960    2.6810 ca        1 MOL     -0.180825
    121 C41       -12.4680   -1.4680    0.5770 ca        1 MOL     -0.180825
    122 C42       -13.0810   -3.4750    2.4640 ca        1 MOL     -0.115574
    123 C43       -13.5660   -2.2980    0.3580 ca        1 MOL     -0.115574
    124 C44       -13.8190   -3.3680    1.2790 ca        1 MOL     -0.172062
    125 H51        -8.6890    0.9990    1.9340 hn        1 MOL      0.349342
    126 H52        -8.7810   -1.8370    1.5620 h1        1 MOL     -0.069289
    127 H53       -10.9410    0.3340    1.8800 hc        1 MOL      0.076500
    128 H54       -10.1980   -0.9180    3.0390 hc        1 MOL      0.076500
    129 H55       -11.3560   -2.8280    3.4980 ha        1 MOL      0.140046
    130 H56       -12.3500   -0.6940   -0.1690 ha        1 MOL      0.140046
    131 H57       -13.2500   -4.2730    3.1620 ha        1 MOL      0.115956
    132 H58       -14.0960   -2.2180   -0.5810 ha        1 MOL      0.115956
    133 H59       -14.5780   -4.0750    0.9720 ha        1 MOL      0.110723
    134 N12        -9.5950   -2.1470   -0.8170 n         1 MOL      0.047083
    135 C45        -9.6530   -3.4520   -0.0910 c3        1 MOL     -0.039045
    136 C46        -8.2320   -4.0600   -0.1780 c         1 MOL      0.645053
    137 O20        -7.9370   -4.8090    0.7360 o         1 MOL     -0.611939
    138 C47       -10.6320   -4.2700   -0.8950 c3        1 MOL     -0.149134
    139 C48       -10.5080   -3.6830   -2.2750 c3        1 MOL      0.051700
    140 C49       -10.1960   -2.2570   -2.1250 c3        1 MOL     -0.186418
    141 H60        -9.9390   -3.3340    0.9540 h1        1 MOL      0.035330
    142 H61       -10.4970   -5.3510   -0.8460 hc        1 MOL      0.067698
    143 H62       -11.6310   -4.0280   -0.5080 hc        1 MOL      0.067698
    144 H63        -9.6860   -4.2000   -2.7630 hc        1 MOL     -0.004547
    145 H64       -11.4450   -3.8400   -2.8140 hc        1 MOL     -0.004547
    146 H65        -9.4580   -1.9480   -2.8640 h1        1 MOL      0.091570
    147 H66       -11.1360   -1.6970   -2.2320 h1        1 MOL      0.091570
    148 N13        -7.3780   -3.7410   -1.1460 n         1 MOL     -0.432895
    149 C50        -6.0170   -4.3280   -1.0430 c3        1 MOL      0.174798
    150 C51        -6.0620   -5.8550   -1.4340 c         1 MOL      0.363987
    151 O21        -6.5440   -6.1370   -2.5480 o         1 MOL     -0.567559
    152 C52        -5.1380   -3.5950   -2.0300 c3        1 MOL      0.038103
    153 C53        -4.9520   -2.1280   -1.6680 c3        1 MOL     -0.349128
    154 C54        -3.9160   -1.5030   -2.5350 c         1 MOL      0.778181
    155 O22        -4.1850   -1.3840   -3.7460 o         1 MOL     -0.746781
    156 O23        -2.8380   -1.1000   -2.0390 o         1 MOL     -0.746781
    157 H67        -7.5630   -3.0930   -1.8930 hn        1 MOL      0.343001
    158 H68        -5.6550   -4.1020   -0.0390 h1        1 MOL      0.071517
    159 H69        -5.6010   -3.7120   -3.0120 hc        1 MOL     -0.000432
    160 H70        -4.1890   -4.1240   -2.0770 hc        1 MOL     -0.000432
    161 H71        -4.5610   -2.0540   -0.6500 hc        1 MOL      0.082709
    162 H72        -5.9000   -1.6080   -1.7840 hc        1 MOL      0.082709
    163 N14        -5.7260   -6.7920   -0.6020 n         1 MOL     -0.323446
    164 C55        -5.3340   -6.5810    0.8630 c3        1 MOL     -0.153179
    165 H73        -6.2350   -6.5210    1.4740 h1        1 MOL      0.090334
    166 H74        -4.7230   -7.4180    1.2000 h1        1 MOL      0.090334
    167 H75        -4.7680   -5.6550    0.9590 h1        1 MOL      0.090334
    168 H76        -5.8690   -7.7430   -0.9160 hn        1 MOL      0.269625
    169 Ca1         6.6540   -1.2750    0.7960 Ca        1 MOL      1.634951
    170 O24         6.8040   -1.3470    3.4930 oh        1 MOL     -0.784446
    171 H77         6.2540   -1.0360    4.2110 ho        1 MOL      0.391573
    172 H78         7.4570   -1.9130    3.9180 ho        1 MOL      0.391573
    173 O25         4.9370    0.3250    2.2240 oh        1 MOL     -0.784446
    174 H79         5.3180    1.0130    2.7560 ho        1 MOL      0.391573
    175 H80         4.0890    0.1450    2.6280 ho        1 MOL      0.391573
    176 O26         6.2600   -2.7910   -1.3720 oh        1 MOL     -0.784446
    177 H81         6.8710   -3.4320   -1.7280 ho        1 MOL      0.391573
    178 H82         6.2040   -2.1130   -2.0520 ho        1 MOL      0.391573
    179 O27         4.5140   -2.7540    1.4170 oh        1 MOL     -0.784446
    180 H83         3.5590   -2.7250    1.5190 ho        1 MOL      0.391573
    181 H84         4.8130   -3.2970    2.1400 ho        1 MOL      0.391573
@<TRIPOS>BOND
     1    1    2 1   
     2    1    4 1   
     3    1    5 1   
     4    1    6 1   
     5    2    3 2   
     6    2    7 1   
     7    7    8 1   
     8    7   15 1   
     9    8    9 1   
    10    8   11 1   
    11    8   16 1   
    12    9   10 2   
    13    9   19 1   
    14   11   12 1   
    15   11   17 1   
    16   11   18 1   
    17   12   13 1   
    18   12   14 1   
    19   19   20 1   
    20   19   24 1   
    21   20   21 1   
    22   20   23 1   
    23   20   25 1   
    24   21   22 2   
    25   21   29 1   
    26   23   26 1   
    27   23   27 1   
    28   23   28 1   
    29   29   30 1   
    30   29   37 1   
    31   30   31 1   
    32   30   33 1   
    33   30   38 1   
    34   31   32 2   
    35   31   41 1   
    36   33   34 1   
    37   33   39 1   
    38   33   40 1   
    39   34   35 1   
    40   34   36 1   
    41   41   42 1   
    42   41   45 1   
    43   42   43 1   
    44   42   46 1   
    45   42   47 1   
    46   43   44 2   
    47   43   48 1   
    48   48   49 1   
    49   48   56 1   
    50   49   50 1   
    51   49   52 1   
    52   49   57 1   
    53   50   51 2   
    54   50   62 1   
    55   52   53 1   
    56   52   58 1   
    57   52   59 1   
    58   53   54 1   
    59   53   55 2   
    60   54   60 1   
    61   54   61 1   
    62   62   63 1   
    63   62   66 1   
    64   63   64 1   
    65   63   67 1   
    66   63   68 1   
    67   64   65 2   
    68   64   69 1   
    69   69   70 1   
    70   69   76 1   
    71   70   71 1   
    72   70   73 1   
    73   70   77 1   
    74   71   72 2   
    75   71   83 1   
    76   73   74 1   
    77   73   75 1   
    78   73   78 1   
    79   74   80 1   
    80   74   81 1   
    81   74   82 1   
    82   75   79 1   
    83   83   84 1   
    84   83   91 1   
    85   84   85 1   
    86   84   87 1   
    87   84   92 1   
    88   85   86 2   
    89   85  102 1   
    90   87   88 1   
    91   87   89 1   
    92   87   93 1   
    93   88   90 1   
    94   88   94 1   
    95   88   95 1   
    96   89   96 1   
    97   89   97 1   
    98   89   98 1   
    99   90   99 1   
   100   90  100 1   
   101   90  101 1   
   102  102  103 1   
   103  102  110 1   
   104  103  104 1   
   105  103  106 1   
   106  103  111 1   
   107  104  105 2   
   108  104  114 1   
   109  106  107 1   
   110  106  112 1   
   111  106  113 1   
   112  107  108 1   
   113  107  109 1   
   114  114  115 1   
   115  114  125 1   
   116  115  116 1   
   117  115  118 1   
   118  115  126 1   
   119  116  117 2   
   120  116  134 1   
   121  118  119 1   
   122  118  127 1   
   123  118  128 1   
   124  119  120 ar  
   125  119  121 ar  
   126  120  122 ar  
   127  120  129 1   
   128  121  123 ar  
   129  121  130 1   
   130  122  124 ar  
   131  122  131 1   
   132  123  124 ar  
   133  123  132 1   
   134  124  133 1   
   135  134  135 1   
   136  134  140 1   
   137  135  136 1   
   138  135  138 1   
   139  135  141 1   
   140  136  137 2   
   141  136  148 1   
   142  138  139 1   
   143  138  142 1   
   144  138  143 1   
   145  139  140 1   
   146  139  144 1   
   147  139  145 1   
   148  140  146 1   
   149  140  147 1   
   150  148  149 1   
   151  148  157 1   
   152  149  150 1   
   153  149  152 1   
   154  149  158 1   
   155  150  151 2   
   156  150  163 1   
   157  152  153 1   
   158  152  159 1   
   159  152  160 1   
   160  153  154 1   
   161  153  161 1   
   162  153  162 1   
   163  154  155 1   
   164  154  156 1   
   165  163  164 1   
   166  163  168 1   
   167  164  165 1   
   168  164  166 1   
   169  164  167 1   
   170  170  171 1   
   171  170  172 1   
   172  173  174 1   
   173  173  175 1   
   174  176  177 1   
   175  176  178 1   
   176  179  180 1   
   177  179  181 1   
@<TRIPOS>SUBSTRUCTURE
     1 MOL         1 TEMP              0 ****  ****    0 ROOT
