@<TRIPOS>MOLECULE
MOL
  192   187     1     0     0
SMALL
resp


@<TRIPOS>ATOM
      1 C1          4.6570   -0.4860    5.3340 c3        1 MOL     -0.543311
      2 C2          5.0050   -0.2790    3.8580 c         1 MOL      0.769005
      3 O1          4.2120    0.2530    3.0490 o         1 MOL     -0.638153
      4 H1          5.1930    0.2450    5.9400 hc        1 MOL      0.151102
      5 H2          3.5840   -0.3590    5.4760 hc        1 MOL      0.151102
      6 H3          4.9480   -1.4920    5.6380 hc        1 MOL      0.151102
      7 N1          6.2580   -0.6140    3.4320 n         1 MOL     -0.622906
      8 C3          6.7560   -0.0000    2.2400 c3        1 MOL      0.379834
      9 C4          6.7740   -0.8310    0.9240 c         1 MOL      0.173497
     10 O2          7.5220   -0.5240    0.0660 o         1 MOL     -0.452602
     11 C5          8.0770    0.7460    2.5200 c3        1 MOL     -0.034960
     12 C6          9.1770   -0.0810    3.1850 c         1 MOL      0.666724
     13 O3          8.9560   -0.9300    4.0820 o         1 MOL     -0.677778
     14 O4         10.3090    0.0890    2.6210 o         1 MOL     -0.677778
     15 H4          6.9080   -0.9280    4.1420 hn        1 MOL      0.275191
     16 H5          6.1860    0.8790    1.9480 h1        1 MOL     -0.003937
     17 H6          7.8390    1.4660    3.2980 hc        1 MOL     -0.017428
     18 H7          8.3980    1.1870    1.5760 hc        1 MOL     -0.017428
     19 N2          6.0930   -1.9890    0.8350 n         1 MOL     -0.112851
     20 C7          6.1640   -2.9240   -0.3460 c3        1 MOL      0.284043
     21 C8          5.0550   -4.0160   -0.4560 c         1 MOL      0.357039
     22 O5          5.3300   -5.2040   -0.7270 o         1 MOL     -0.520439
     23 C9          7.5350   -3.6120   -0.0420 c3        1 MOL     -0.593733
     24 C10         8.1700   -4.2820   -1.2500 c3        1 MOL      0.197138
     25 C11         9.6210   -4.7260   -0.9570 c3        1 MOL     -0.089099
     26 C12        10.2500   -5.2690   -2.1690 c3        1 MOL     -0.042185
     27 N3          9.3880   -6.2380   -2.9640 n4        1 MOL     -0.446860
     28 H8          5.5990   -2.1810    1.6970 hn        1 MOL      0.130003
     29 H9          6.1790   -2.2600   -1.2040 h1        1 MOL      0.055121
     30 H10         7.3560   -4.3760    0.7170 hc        1 MOL      0.168564
     31 H11         8.2500   -2.9040    0.3580 hc        1 MOL      0.168564
     32 H12         8.2300   -3.5600   -2.0610 hc        1 MOL     -0.001560
     33 H13         7.5860   -5.0990   -1.6870 hc        1 MOL     -0.001560
     34 H14         9.6350   -5.5030   -0.1930 hc        1 MOL      0.081799
     35 H15        10.2210   -3.8760   -0.6180 hc        1 MOL      0.081799
     36 H16        11.2280   -5.6750   -1.8950 hx        1 MOL      0.114961
     37 H17        10.5790   -4.5260   -2.8920 hx        1 MOL      0.114961
     38 H18         8.7060   -6.7010   -2.3730 hn        1 MOL      0.342354
     39 H19         8.8390   -5.8430   -3.7130 hn        1 MOL      0.342354
     40 H20         9.9880   -6.9360   -3.3780 hn        1 MOL      0.342354
     41 N4          3.7920   -3.7020   -0.0980 n         1 MOL     -0.284115
     42 C13         3.2220   -2.5350    0.5750 c3        1 MOL     -0.009521
     43 C14         3.4130   -1.2610   -0.2720 c         1 MOL      0.324645
     44 O6          3.4270   -1.3050   -1.5420 o         1 MOL     -0.569944
     45 C15         1.7570   -2.6240    1.0830 c3        1 MOL     -0.022986
     46 C16         0.6350   -2.6850    0.0420 c         1 MOL      0.554738
     47 O7         -0.0170   -1.6080   -0.1050 o         1 MOL     -0.607129
     48 O8          0.4280   -3.7250   -0.6320 o         1 MOL     -0.607129
     49 H21         3.1580   -4.4630   -0.3100 hn        1 MOL      0.259536
     50 H22         3.7820   -2.4430    1.4950 h1        1 MOL      0.046055
     51 H23         1.6390   -1.8920    1.8720 hc        1 MOL      0.017848
     52 H24         1.6420   -3.5570    1.6290 hc        1 MOL      0.017848
     53 N5          3.4650   -0.0580    0.2570 n         1 MOL      0.023517
     54 C17         3.9570    1.1090   -0.4840 c3        1 MOL     -0.063004
     55 C18         2.9140    1.6190   -1.4370 c         1 MOL      0.710538
     56 O9          1.7420    1.1820   -1.4580 o         1 MOL     -0.741089
     57 H25         3.4100    0.0780    1.2540 hn        1 MOL      0.180229
     58 H26         4.8070    0.7810   -1.0900 h1        1 MOL      0.053501
     59 H27         4.2340    1.9640    0.1410 h1        1 MOL      0.053501
     60 N6          3.2470    2.6230   -2.2240 n         1 MOL     -0.499923
     61 C19         2.4530    3.5900   -2.9910 c3        1 MOL      0.298122
     62 C20         3.1900    4.9470   -3.0690 c         1 MOL      0.393626
     63 O10         4.4410    4.9960   -2.8120 o         1 MOL     -0.539254
     64 C21         2.2580    2.9400   -4.3870 c3        1 MOL     -0.267768
     65 C22         1.3120    1.7200   -4.3570 c         1 MOL      0.739817
     66 O11         0.2270    1.7570   -3.7310 o         1 MOL     -0.692941
     67 O12         1.7000    0.7440   -5.0670 o         1 MOL     -0.692941
     68 H28         4.2090    2.8890   -2.0810 hn        1 MOL      0.252242
     69 H29         1.4640    3.6600   -2.5350 h1        1 MOL      0.045303
     70 H30         3.2070    2.6410   -4.8230 hc        1 MOL      0.058428
     71 H31         1.7200    3.6540   -5.0090 hc        1 MOL      0.058428
     72 N7          2.5760    6.0260   -3.4010 n         1 MOL     -0.379126
     73 C23         1.1480    6.1880   -3.6460 c3        1 MOL     -0.070333
     74 C24         0.3000    6.0810   -2.3710 c         1 MOL      0.549247
     75 O13         0.4970    6.7490   -1.3570 o         1 MOL     -0.504901
     76 H32         3.1590    6.8200   -3.6320 hn        1 MOL      0.320006
     77 H33         0.7410    5.5040   -4.3900 h1        1 MOL      0.078412
     78 H34         0.9450    7.1480   -4.1040 h1        1 MOL      0.078412
     79 N8         -0.8370    5.3770   -2.5640 n         1 MOL     -0.476894
     80 C25        -1.8550    5.0690   -1.5580 c3        1 MOL      0.071787
     81 C26        -1.3040    3.9210   -0.6820 c         1 MOL      0.677601
     82 O14        -0.7310    3.0280   -1.2350 o         1 MOL     -0.595800
     83 C27        -3.1680    4.6050   -2.1110 c3        1 MOL      0.263502
     84 C28        -3.7660    5.3520   -3.2460 c3        1 MOL     -0.432267
     85 O15        -4.1290    4.5730   -1.0700 oh        1 MOL     -0.717161
     86 H35        -0.9710    4.9190   -3.4480 hn        1 MOL      0.257232
     87 H36        -1.8770    5.9400   -0.9120 h1        1 MOL      0.070186
     88 H37        -3.0220    3.5850   -2.4610 h1        1 MOL      0.121471
     89 H38        -4.7500    5.2980   -1.1980 ho        1 MOL      0.443035
     90 H39        -3.2040    5.1330   -4.1570 hc        1 MOL      0.118040
     91 H40        -4.7800    4.9930   -3.4340 hc        1 MOL      0.118040
     92 H41        -3.7530    6.4130   -2.9890 hc        1 MOL      0.118040
     93 N9         -1.2880    4.0380    0.6380 n         1 MOL     -0.615425
     94 C29        -0.4280    3.3090    1.6250 c3        1 MOL      0.372674
     95 C30        -0.5520    1.8080    1.6840 c         1 MOL      0.075539
     96 O16        -0.0180    1.0930    0.8640 o         1 MOL     -0.418703
     97 C31         1.0660    3.8700    1.5420 c3        1 MOL      0.023473
     98 C32         1.0550    5.4480    1.7510 c3        1 MOL      0.027191
     99 C33         1.8720    3.0920    2.7100 c3        1 MOL     -0.354885
    100 C34         2.3980    6.1700    1.8310 c3        1 MOL     -0.102094
    101 H42        -1.7240    4.8970    0.9530 hn        1 MOL      0.273309
    102 H43        -0.7730    3.6480    2.6120 h1        1 MOL      0.003728
    103 H44         1.4930    3.6460    0.5710 hc        1 MOL      0.056290
    104 H45         0.5420    5.6200    2.6930 hc        1 MOL     -0.012826
    105 H46         0.4200    5.9290    1.0080 hc        1 MOL     -0.012826
    106 H47         2.0640    2.0670    2.4000 hc        1 MOL      0.113807
    107 H48         2.8560    3.4350    3.0090 hc        1 MOL      0.113807
    108 H49         1.2430    3.0410    3.5980 hc        1 MOL      0.113807
    109 H50         3.0640    6.0940    0.9800 hc        1 MOL      0.032736
    110 H51         2.2430    7.2500    1.9430 hc        1 MOL      0.032736
    111 H52         2.9470    6.0120    2.7650 hc        1 MOL      0.032736
    112 N10        -1.0720    1.2530    2.7950 n         1 MOL     -0.132110
    113 C35        -1.3650   -0.2120    3.0170 c3        1 MOL     -0.470707
    114 C36        -2.8730   -0.4920    3.3800 c         1 MOL      0.662357
    115 O17        -3.1270   -1.6200    3.7830 o         1 MOL     -0.540938
    116 C37        -0.2720   -0.8240    4.0550 c3        1 MOL      0.485608
    117 C38        -0.5590   -0.2150    5.4480 c3        1 MOL     -0.293873
    118 O18         0.9380   -0.3160    3.7350 oh        1 MOL     -0.434745
    119 H53        -1.4690    1.9870    3.3640 hn        1 MOL      0.217674
    120 H54        -1.2410   -0.7090    2.0510 h1        1 MOL      0.237587
    121 H55        -0.2680   -1.9110    4.0320 h1        1 MOL      0.009237
    122 H56         0.8660   -0.0440    2.8120 ho        1 MOL      0.110673
    123 H57        -0.2550    0.8300    5.4070 hc        1 MOL      0.064452
    124 H58        -1.6390   -0.3130    5.5630 hc        1 MOL      0.064452
    125 H59        -0.0820   -0.7060    6.2910 hc        1 MOL      0.064452
    126 N11        -3.8120    0.4940    3.3490 n         1 MOL     -0.280476
    127 C39        -5.2780    0.2850    3.6770 c3        1 MOL     -0.044126
    128 C40        -6.0530   -0.2260    2.4580 c         1 MOL      0.489644
    129 O19        -6.6230    0.5900    1.6950 o         1 MOL     -0.477285
    130 C41        -6.0260    1.5850    4.2030 c3        1 MOL      0.089359
    131 C42        -5.7780    1.8110    5.7290 c3        1 MOL     -0.178255
    132 O20        -5.6130    2.7400    3.5640 oh        1 MOL     -0.574667
    133 H60        -3.5940    1.3860    2.9240 hn        1 MOL      0.259850
    134 H61        -5.2530   -0.5600    4.3800 h1        1 MOL      0.085051
    135 H62        -7.0910    1.5270    4.0130 h1        1 MOL      0.090008
    136 H63        -6.3180    3.3670    3.7290 ho        1 MOL      0.420466
    137 H64        -6.4630    2.5630    6.1100 hc        1 MOL      0.049377
    138 H65        -5.9670    1.0130    6.4410 hc        1 MOL      0.049377
    139 H66        -4.7330    2.1330    5.8080 hc        1 MOL      0.049377
    140 N12        -6.1600   -1.5840    2.3300 n         1 MOL     -0.545644
    141 C43        -6.4640   -2.2460    1.0030 c3        1 MOL      0.052309
    142 C44        -5.3330   -2.0130   -0.0180 c         1 MOL      0.768318
    143 O21        -4.6110   -1.0570    0.1420 o         1 MOL     -0.581461
    144 C45        -7.9410   -1.9740    0.5280 c3        1 MOL     -0.463992
    145 C46        -9.0550   -2.2660    1.5680 c3        1 MOL      0.365319
    146 C47       -10.3960   -1.8430    0.9910 c3        1 MOL     -0.216411
    147 C48       -11.5220   -2.2560    2.0180 c3        1 MOL      0.008180
    148 N13       -12.0480   -3.6060    1.7770 n4        1 MOL     -0.386922
    149 H67        -5.9090   -2.1470    3.1290 hn        1 MOL      0.316469
    150 H68        -6.4510   -3.3250    1.1110 h1        1 MOL      0.059908
    151 H69        -8.1460   -2.5870   -0.3520 hc        1 MOL      0.128114
    152 H70        -7.9350   -0.9230    0.2410 hc        1 MOL      0.128114
    153 H71        -8.9660   -1.7320    2.5210 hc        1 MOL     -0.045812
    154 H72        -9.1580   -3.3380    1.7450 hc        1 MOL     -0.045812
    155 H73       -10.6250   -2.2800    0.0260 hc        1 MOL      0.097704
    156 H74       -10.3540   -0.7460    0.9510 hc        1 MOL      0.097704
    157 H75       -12.3390   -1.5480    1.8360 hx        1 MOL      0.097559
    158 H76       -11.2520   -2.0960    3.0680 hx        1 MOL      0.097559
    159 H77       -12.3670   -3.6920    0.8180 hn        1 MOL      0.279421
    160 H78       -11.2890   -4.2740    1.7960 hn        1 MOL      0.279421
    161 H79       -12.8590   -3.7840    2.3340 hn        1 MOL      0.279421
    162 N14        -5.2940   -2.9060   -0.9650 n         1 MOL     -0.617442
    163 C49        -4.4550   -2.6150   -2.1330 c3        1 MOL      0.335325
    164 C50        -2.9490   -2.6310   -1.8840 c         1 MOL      0.254536
    165 O22        -2.3220   -1.6170   -2.1250 o         1 MOL     -0.529985
    166 C51        -4.9980   -3.5010   -3.3090 c3        1 MOL      0.069894
    167 C52        -6.3910   -3.1600   -3.9110 c3        1 MOL     -0.239051
    168 C53        -6.9330   -4.1950   -4.8430 c         1 MOL      0.696706
    169 O23        -6.5970   -4.2290   -6.0470 o         1 MOL     -0.670543
    170 O24        -7.6460   -5.1150   -4.3270 o         1 MOL     -0.670543
    171 H80        -5.9870   -3.6420   -1.0290 hn        1 MOL      0.319666
    172 H81        -4.6230   -1.5660   -2.3670 h1        1 MOL     -0.026536
    173 H82        -5.0090   -4.5450   -2.9910 hc        1 MOL      0.028189
    174 H83        -4.2620   -3.5210   -4.1070 hc        1 MOL      0.028189
    175 H84        -6.3120   -2.2190   -4.4580 hc        1 MOL      0.017098
    176 H85        -7.1150   -3.0720   -3.0980 hc        1 MOL      0.017098
    177 N15        -2.2620   -3.6810   -1.3550 n         1 MOL     -0.232769
    178 C54        -2.9400   -4.9570   -0.9340 c3        1 MOL      0.006300
    179 H86        -3.4940   -4.7850   -0.0100 h1        1 MOL      0.026275
    180 H87        -3.6290   -5.2780   -1.7150 h1        1 MOL      0.026275
    181 H88        -2.1900   -5.7300   -0.7690 h1        1 MOL      0.026275
    182 H89        -1.2600   -3.6400   -1.3040 hn        1 MOL      0.268477
    183 Ca1        -0.6840    0.3170   -1.6270 Ca        1 MOL      1.765376
    184 O25        -2.6880    0.5480    0.1120 oh        1 MOL     -0.911993
    185 H90        -3.1330    1.2930    0.5170 ho        1 MOL      0.439677
    186 H91        -3.3730   -0.1190    0.0120 ho        1 MOL      0.439677
    187 O26         1.1510   -1.2050   -3.3780 oh        1 MOL     -0.911993
    188 H92         1.3730   -0.5160   -4.0010 ho        1 MOL      0.439677
    189 H93         1.9860   -1.4770   -2.9940 ho        1 MOL      0.439677
    190 O27        -3.0180    1.1070   -2.8840 oh        1 MOL     -0.911993
    191 H94        -3.5160    0.5750   -3.5000 ho        1 MOL      0.439677
    192 H95        -3.6590    1.3830   -2.2340 ho        1 MOL      0.439677
@<TRIPOS>BOND
     1    1    2 1   
     2    1    4 1   
     3    1    5 1   
     4    1    6 1   
     5    2    3 2   
     6    2    7 1   
     7    7    8 1   
     8    7   15 1   
     9    8    9 1   
    10    8   11 1   
    11    8   16 1   
    12    9   10 2   
    13    9   19 1   
    14   11   12 1   
    15   11   17 1   
    16   11   18 1   
    17   12   13 1   
    18   12   14 1   
    19   19   20 1   
    20   19   28 1   
    21   20   21 1   
    22   20   23 1   
    23   20   29 1   
    24   21   22 2   
    25   21   41 1   
    26   23   24 1   
    27   23   30 1   
    28   23   31 1   
    29   24   25 1   
    30   24   32 1   
    31   24   33 1   
    32   25   26 1   
    33   25   34 1   
    34   25   35 1   
    35   26   27 1   
    36   26   36 1   
    37   26   37 1   
    38   27   38 1   
    39   27   39 1   
    40   27   40 1   
    41   41   42 1   
    42   41   49 1   
    43   42   43 1   
    44   42   45 1   
    45   42   50 1   
    46   43   44 2   
    47   43   53 1   
    48   45   46 1   
    49   45   51 1   
    50   45   52 1   
    51   46   47 1   
    52   46   48 1   
    53   53   54 1   
    54   53   57 1   
    55   54   55 1   
    56   54   58 1   
    57   54   59 1   
    58   55   56 2   
    59   55   60 1   
    60   60   61 1   
    61   60   68 1   
    62   61   62 1   
    63   61   64 1   
    64   61   69 1   
    65   62   63 2   
    66   62   72 1   
    67   64   65 1   
    68   64   70 1   
    69   64   71 1   
    70   65   66 1   
    71   65   67 1   
    72   72   73 1   
    73   72   76 1   
    74   73   74 1   
    75   73   77 1   
    76   73   78 1   
    77   74   75 2   
    78   74   79 1   
    79   79   80 1   
    80   79   86 1   
    81   80   81 1   
    82   80   83 1   
    83   80   87 1   
    84   81   82 2   
    85   81   93 1   
    86   83   84 1   
    87   83   85 1   
    88   83   88 1   
    89   84   90 1   
    90   84   91 1   
    91   84   92 1   
    92   85   89 1   
    93   93   94 1   
    94   93  101 1   
    95   94   95 1   
    96   94   97 1   
    97   94  102 1   
    98   95   96 2   
    99   95  112 1   
   100   97   98 1   
   101   97   99 1   
   102   97  103 1   
   103   98  100 1   
   104   98  104 1   
   105   98  105 1   
   106   99  106 1   
   107   99  107 1   
   108   99  108 1   
   109  100  109 1   
   110  100  110 1   
   111  100  111 1   
   112  112  113 1   
   113  112  119 1   
   114  113  114 1   
   115  113  116 1   
   116  113  120 1   
   117  114  115 2   
   118  114  126 1   
   119  116  117 1   
   120  116  118 1   
   121  116  121 1   
   122  117  123 1   
   123  117  124 1   
   124  117  125 1   
   125  118  122 1   
   126  126  127 1   
   127  126  133 1   
   128  127  128 1   
   129  127  130 1   
   130  127  134 1   
   131  128  129 2   
   132  128  140 1   
   133  130  131 1   
   134  130  132 1   
   135  130  135 1   
   136  131  137 1   
   137  131  138 1   
   138  131  139 1   
   139  132  136 1   
   140  140  141 1   
   141  140  149 1   
   142  141  142 1   
   143  141  144 1   
   144  141  150 1   
   145  142  143 2   
   146  142  162 1   
   147  144  145 1   
   148  144  151 1   
   149  144  152 1   
   150  145  146 1   
   151  145  153 1   
   152  145  154 1   
   153  146  147 1   
   154  146  155 1   
   155  146  156 1   
   156  147  148 1   
   157  147  157 1   
   158  147  158 1   
   159  148  159 1   
   160  148  160 1   
   161  148  161 1   
   162  162  163 1   
   163  162  171 1   
   164  163  164 1   
   165  163  166 1   
   166  163  172 1   
   167  164  165 2   
   168  164  177 1   
   169  166  167 1   
   170  166  173 1   
   171  166  174 1   
   172  167  168 1   
   173  167  175 1   
   174  167  176 1   
   175  168  169 1   
   176  168  170 1   
   177  177  178 1   
   178  177  182 1   
   179  178  179 1   
   180  178  180 1   
   181  178  181 1   
   182  184  185 1   
   183  184  186 1   
   184  187  188 1   
   185  187  189 1   
   186  190  191 1   
   187  190  192 1   
@<TRIPOS>SUBSTRUCTURE
     1 MOL         1 TEMP              0 ****  ****    0 ROOT
