@<TRIPOS>MOLECULE
MOL
  178   175     1     0     0
SMALL
resp


@<TRIPOS>ATOM
      1 C1          1.0230    6.4960   -1.8530 c3        1 MOL     -0.396388
      2 C2          2.4380    6.2430   -1.4200 c         1 MOL      0.651864
      3 O1          2.8520    6.7990   -0.3840 o         1 MOL     -0.582598
      4 H1          0.3790    6.5540   -0.9750 hc        1 MOL      0.104559
      5 H2          0.9730    7.4360   -2.4030 hc        1 MOL      0.104559
      6 H3          0.6870    5.6810   -2.4950 hc        1 MOL      0.104559
      7 N1          3.2270    5.4410   -2.1650 n         1 MOL     -0.487232
      8 C3          4.4100    4.7320   -1.6670 c3        1 MOL     -0.020781
      9 C4          4.1850    3.7340   -0.4610 c         1 MOL      0.732363
     10 O2          3.5180    2.7000   -0.5060 o         1 MOL     -0.623230
     11 C5          4.9530    3.9230   -2.9050 c3        1 MOL     -0.231825
     12 C6          6.4480    3.5050   -2.6330 c         1 MOL      0.693969
     13 O3          6.6340    2.2970   -2.4420 o         1 MOL     -0.723069
     14 O4          7.3770    4.3570   -2.4510 o         1 MOL     -0.723069
     15 H4          2.8380    5.1120   -3.0390 hn        1 MOL      0.286135
     16 H5          5.0400    5.5700   -1.3730 h1        1 MOL      0.092569
     17 H6          4.8750    4.6050   -3.7570 hc        1 MOL      0.035136
     18 H7          4.3420    3.0340   -3.0960 hc        1 MOL      0.035136
     19 N2          4.6930    4.1330    0.6880 n         1 MOL     -0.489696
     20 C7          4.7490    3.3730    2.0110 c3        1 MOL      0.191608
     21 C8          3.4120    3.2550    2.7870 c         1 MOL      0.587622
     22 O5          2.5830    4.1470    2.7550 o         1 MOL     -0.566813
     23 C9          5.9280    4.0470    2.7880 c3        1 MOL     -0.495553
     24 H8          5.2340    4.9860    0.6200 hn        1 MOL      0.287393
     25 H9          5.0720    2.3680    1.7160 h1        1 MOL      0.135797
     26 H10         6.0300    3.5650    3.7690 hc        1 MOL      0.135525
     27 H11         6.8460    4.0670    2.2140 hc        1 MOL      0.135525
     28 H12         5.6910    5.1000    2.9230 hc        1 MOL      0.135525
     29 N3          3.1750    2.2010    3.6130 n         1 MOL     -0.518255
     30 C10         4.0870    1.0350    3.7260 c3        1 MOL      0.293747
     31 C11         4.1040    0.1680    2.4440 c         1 MOL      0.358149
     32 O6          3.2210    0.2170    1.6290 o         1 MOL     -0.398659
     33 C12         3.7450    0.1300    4.8970 c3        1 MOL     -0.384028
     34 C13         2.2470   -0.3620    4.9560 c         1 MOL      0.730162
     35 O7          1.7850   -0.9990    5.9080 o         1 MOL     -0.676023
     36 O8          1.5020   -0.2980    3.9610 o         1 MOL     -0.676023
     37 H13         2.2730    2.1850    4.0840 hn        1 MOL      0.310497
     38 H14         5.0980    1.4210    3.8060 h1        1 MOL     -0.017182
     39 H15         4.0300    0.6800    5.7880 hc        1 MOL      0.079398
     40 H16         4.3120   -0.8050    4.9010 hc        1 MOL      0.079398
     41 N4          5.2620   -0.5000    2.2390 n         1 MOL     -0.549936
     42 C14         5.7600   -1.2000    0.9880 c3        1 MOL      0.142849
     43 C15         6.8350   -0.4450    0.3260 c         1 MOL      0.547550
     44 O9          6.9460    0.7550    0.5390 o         1 MOL     -0.487435
     45 H17         5.9780   -0.4530    2.9550 hn        1 MOL      0.298009
     46 H18         4.8830   -1.2720    0.3430 h1        1 MOL      0.058169
     47 H19         5.9670   -2.2530    1.1620 h1        1 MOL      0.058169
     48 N5          7.5060   -1.0550   -0.6860 n         1 MOL     -0.561001
     49 C16         7.5490   -2.4790   -1.0970 c3        1 MOL      0.027114
     50 C17         6.4240   -2.9260   -2.0310 c         1 MOL      0.515523
     51 O10         6.5570   -4.0520   -2.4940 o         1 MOL     -0.537647
     52 C18         8.9390   -2.8660   -1.6800 c3        1 MOL     -0.185286
     53 C19        10.1630   -2.4000   -0.9810 c         1 MOL      0.580054
     54 N6         11.1820   -2.0540   -1.7390 n         1 MOL     -0.702436
     55 O11        10.2650   -2.2460    0.2590 o         1 MOL     -0.540582
     56 H20         8.0710   -0.4240   -1.2480 hn        1 MOL      0.366468
     57 H21         7.4840   -3.1740   -0.2570 h1        1 MOL      0.085031
     58 H22         8.8970   -2.6410   -2.7470 hc        1 MOL      0.083855
     59 H23         9.1010   -3.9380   -1.7150 hc        1 MOL      0.083855
     60 H24        11.2580   -2.3130   -2.7220 hn        1 MOL      0.332980
     61 H25        12.0200   -1.8080   -1.2330 hn        1 MOL      0.332980
     62 N7          5.4090   -2.1140   -2.3190 n         1 MOL     -0.382995
     63 C20         4.3220   -2.3640   -3.2580 c3        1 MOL     -0.022340
     64 C21         3.1750   -3.1790   -2.6640 c         1 MOL      0.496557
     65 O12         2.5700   -3.9690   -3.4230 o         1 MOL     -0.570674
     66 H26         5.3840   -1.1930   -1.9130 hn        1 MOL      0.282489
     67 H27         4.7080   -2.8440   -4.1650 h1        1 MOL      0.093564
     68 H28         3.8860   -1.4730   -3.7110 h1        1 MOL      0.093564
     69 N8          2.9160   -3.0790   -1.3570 n         1 MOL     -0.147235
     70 C22         1.8010   -3.7840   -0.6440 c3        1 MOL     -0.218078
     71 C23         0.5080   -3.1370   -0.7990 c         1 MOL      0.395846
     72 O13         0.3890   -1.8890   -0.5890 o         1 MOL     -0.525163
     73 C24         1.9340   -3.9150    0.8970 c3        1 MOL      0.189641
     74 C25         2.9860   -4.9270    1.3620 c3        1 MOL     -0.130330
     75 O14         2.2050   -2.7040    1.4950 oh        1 MOL     -0.474564
     76 H29         3.3940   -2.3530   -0.8500 hn        1 MOL      0.093970
     77 H30         1.8230   -4.8280   -0.9510 h1        1 MOL      0.142629
     78 H31         1.0370   -4.3430    1.3450 h1        1 MOL      0.102217
     79 H32         1.9790   -2.8780    2.4120 ho        1 MOL      0.346590
     80 H33         4.0240   -4.6470    1.1640 hc        1 MOL      0.033780
     81 H34         2.8910   -5.1060    2.4330 hc        1 MOL      0.033780
     82 H35         2.7840   -5.9380    1.0100 hc        1 MOL      0.033780
     83 N9         -0.5100   -3.9540   -1.0050 n         1 MOL     -0.206868
     84 C26        -1.9180   -3.4700   -1.2520 c3        1 MOL     -0.127858
     85 C27        -2.7630   -3.8780    0.0030 c         1 MOL      0.241876
     86 O15        -2.7890   -5.0150    0.4240 o         1 MOL     -0.512512
     87 C28        -2.5710   -3.9890   -2.5350 c3        1 MOL      0.188432
     88 C29        -3.8510   -3.2540   -2.8240 c3        1 MOL      0.219242
     89 C30        -1.6000   -3.7260   -3.7410 c3        1 MOL     -0.315445
     90 C31        -4.8700   -3.9670   -3.7300 c3        1 MOL     -0.120810
     91 H36        -0.3450   -4.9400   -1.1730 hn        1 MOL      0.245737
     92 H37        -1.9200   -2.3800   -1.3090 h1        1 MOL      0.308140
     93 H38        -2.6440   -5.0740   -2.5880 hc        1 MOL     -0.012754
     94 H39        -3.6390   -2.2950   -3.3010 hc        1 MOL     -0.091397
     95 H40        -4.3160   -3.0740   -1.8550 hc        1 MOL     -0.091397
     96 H41        -0.7470   -4.4010   -3.6390 hc        1 MOL      0.068793
     97 H42        -2.1500   -3.9540   -4.6620 hc        1 MOL      0.068793
     98 H43        -1.3070   -2.6820   -3.6720 hc        1 MOL      0.068793
     99 H44        -5.8070   -3.5030   -3.4160 hc        1 MOL      0.012298
    100 H45        -4.7340   -3.8850   -4.8070 hc        1 MOL      0.012298
    101 H46        -4.9200   -5.0030   -3.4060 hc        1 MOL      0.012298
    102 N10        -3.4210   -2.8840    0.6070 n         1 MOL      0.119942
    103 C32        -4.1220   -2.9820    1.8440 c3        1 MOL     -0.035174
    104 C33        -5.5060   -2.3810    1.7380 c         1 MOL      0.311718
    105 O16        -6.4000   -2.7360    2.5070 o         1 MOL     -0.532324
    106 C34        -3.3430   -2.4650    2.9960 c3        1 MOL      0.081543
    107 C35        -1.8460   -2.8410    3.0090 c         1 MOL      0.538008
    108 O17        -1.3950   -3.7780    3.6880 o         1 MOL     -0.635416
    109 O18        -1.0480   -2.1360    2.2800 o         1 MOL     -0.635416
    110 H47        -3.2010   -1.9930    0.2030 hn        1 MOL     -0.071804
    111 H48        -4.2020   -4.0600    1.9840 h1        1 MOL      0.086154
    112 H49        -3.6850   -2.7900    3.9850 hc        1 MOL     -0.025913
    113 H50        -3.3480   -1.3740    2.9300 hc        1 MOL     -0.025913
    114 N11        -5.6640   -1.3990    0.8480 n         1 MOL     -0.182121
    115 C36        -6.8540   -0.4980    0.8580 c3        1 MOL      0.157136
    116 C37        -6.4410    0.8150    0.1360 c         1 MOL      0.229836
    117 O19        -6.7840    1.0630   -1.0380 o         1 MOL     -0.391068
    118 C38        -8.0090   -1.1640    0.1190 c3        1 MOL     -0.474218
    119 C39        -9.3420   -0.3390    0.1310 ca        1 MOL      0.145802
    120 C40        -9.7530    0.2090    1.3740 ca        1 MOL     -0.076425
    121 C41       -10.1790   -0.1390   -0.9790 ca        1 MOL     -0.076425
    122 C42       -10.9820    0.8880    1.4270 ca        1 MOL     -0.225381
    123 C43       -11.3600    0.5370   -0.9430 ca        1 MOL     -0.225381
    124 C44       -11.7920    1.0750    0.2820 ca        1 MOL     -0.026738
    125 H51        -4.8880   -1.1470    0.2470 hn        1 MOL      0.193313
    126 H52        -7.2220   -0.3950    1.8760 h1        1 MOL      0.096673
    127 H53        -8.1480   -2.1190    0.6160 hc        1 MOL      0.157037
    128 H54        -7.7370   -1.3450   -0.9240 hc        1 MOL      0.157037
    129 H55        -9.1580    0.1100    2.2750 ha        1 MOL      0.095909
    130 H56        -9.8160   -0.5460   -1.9160 ha        1 MOL      0.095909
    131 H57       -11.1300    1.4300    2.3480 ha        1 MOL      0.126093
    132 H58       -11.9540    0.8620   -1.7890 ha        1 MOL      0.126093
    133 H59       -12.7160    1.6000    0.4380 ha        1 MOL      0.076017
    134 N12        -5.6470    1.7150    0.8910 n         1 MOL     -0.068762
    135 C45        -5.4880    3.1710    0.4540 c3        1 MOL      0.015422
    136 C46        -4.7180    3.2500   -0.9060 c         1 MOL      0.172479
    137 O20        -4.7440    4.2440   -1.6200 o         1 MOL     -0.495101
    138 C47        -4.7030    3.9010    1.5270 c3        1 MOL     -0.017706
    139 C48        -5.0080    3.0570    2.7300 c3        1 MOL     -0.039163
    140 C49        -5.3250    1.6050    2.3370 c3        1 MOL     -0.022103
    141 H60        -6.4460    3.6670    0.3170 h1        1 MOL      0.087327
    142 H61        -3.6210    3.8840    1.4020 hc        1 MOL      0.051329
    143 H62        -5.0090    4.9440    1.5990 hc        1 MOL      0.051329
    144 H63        -4.2170    3.1810    3.4630 hc        1 MOL      0.018282
    145 H64        -5.8960    3.4660    3.2140 hc        1 MOL      0.018282
    146 H65        -4.4540    0.9800    2.5430 h1        1 MOL      0.024539
    147 H66        -6.1820    1.1720    2.8590 h1        1 MOL      0.024539
    148 N13        -3.9960    2.2590   -1.3980 n         1 MOL      0.078525
    149 C50        -3.4040    2.1990   -2.7570 c3        1 MOL     -0.305507
    150 C51        -4.5230    2.1000   -3.8070 c         1 MOL      0.520176
    151 O21        -4.4110    2.8180   -4.8040 o         1 MOL     -0.564582
    152 C52        -2.4410    0.9980   -2.9090 c3        1 MOL      0.069874
    153 C53        -1.6000    0.6780   -1.6400 c3        1 MOL     -0.227024
    154 C54        -2.4090    0.0130   -0.4890 c         1 MOL      0.091751
    155 O22        -1.8110    0.1040    0.6040 o         1 MOL     -0.405025
    156 O23        -3.5720   -0.3780   -0.5790 o         1 MOL     -0.405025
    157 H67        -3.9990    1.4040   -0.8580 hn        1 MOL      0.191006
    158 H68        -2.8570    3.1190   -2.9610 h1        1 MOL      0.147044
    159 H69        -1.7640    1.1380   -3.7520 hc        1 MOL      0.025041
    160 H70        -2.9520    0.0830   -3.2180 hc        1 MOL      0.025041
    161 H71        -1.1620    1.5990   -1.2700 hc        1 MOL      0.081632
    162 H72        -0.8420   -0.0240   -1.9840 hc        1 MOL      0.081632
    163 N14        -5.5590    1.2740   -3.6160 n         1 MOL     -0.171101
    164 C55        -6.6790    1.0590   -4.5460 c3        1 MOL     -0.105114
    165 H73        -7.5900    1.4800   -4.1200 h1        1 MOL      0.061312
    166 H74        -6.4630    1.5510   -5.4960 h1        1 MOL      0.061312
    167 H75        -6.8150   -0.0090   -4.7120 h1        1 MOL      0.061312
    168 H76        -5.5410    0.8040   -2.7240 hn        1 MOL      0.159988
    169 Ca1         0.5430   -0.2360    1.6260 Ca        1 MOL      1.514369
    170 O24         0.3550    2.3940    2.1540 oh        1 MOL     -0.801948
    171 H77        -0.5490    2.7030    2.1110 ho        1 MOL      0.395045
    172 H78         0.8840    3.1840    2.0100 ho        1 MOL      0.395045
    173 O25         1.4940    0.9150   -0.5000 oh        1 MOL     -0.801948
    174 H79         2.1170    1.6390   -0.6030 ho        1 MOL      0.395045
    175 H80         1.4020    0.5560   -1.3780 ho        1 MOL      0.395045
    176 O26        -1.8190    0.6560    3.1610 oh        1 MOL     -0.801948
    177 H81        -2.4280    0.3430    3.8240 ho        1 MOL      0.395045
    178 H82        -2.2240    0.4210    2.3310 ho        1 MOL      0.395045
@<TRIPOS>BOND
     1    1    2 1   
     2    1    4 1   
     3    1    5 1   
     4    1    6 1   
     5    2    3 2   
     6    2    7 1   
     7    7    8 1   
     8    7   15 1   
     9    8    9 1   
    10    8   11 1   
    11    8   16 1   
    12    9   10 2   
    13    9   19 1   
    14   11   12 1   
    15   11   17 1   
    16   11   18 1   
    17   12   13 1   
    18   12   14 1   
    19   19   20 1   
    20   19   24 1   
    21   20   21 1   
    22   20   23 1   
    23   20   25 1   
    24   21   22 2   
    25   21   29 1   
    26   23   26 1   
    27   23   27 1   
    28   23   28 1   
    29   29   30 1   
    30   29   37 1   
    31   30   31 1   
    32   30   33 1   
    33   30   38 1   
    34   31   32 2   
    35   31   41 1   
    36   33   34 1   
    37   33   39 1   
    38   33   40 1   
    39   34   35 1   
    40   34   36 1   
    41   41   42 1   
    42   41   45 1   
    43   42   43 1   
    44   42   46 1   
    45   42   47 1   
    46   43   44 2   
    47   43   48 1   
    48   48   49 1   
    49   48   56 1   
    50   49   50 1   
    51   49   52 1   
    52   49   57 1   
    53   50   51 2   
    54   50   62 1   
    55   52   53 1   
    56   52   58 1   
    57   52   59 1   
    58   53   54 1   
    59   53   55 2   
    60   54   60 1   
    61   54   61 1   
    62   62   63 1   
    63   62   66 1   
    64   63   64 1   
    65   63   67 1   
    66   63   68 1   
    67   64   65 2   
    68   64   69 1   
    69   69   70 1   
    70   69   76 1   
    71   70   71 1   
    72   70   73 1   
    73   70   77 1   
    74   71   72 2   
    75   71   83 1   
    76   73   74 1   
    77   73   75 1   
    78   73   78 1   
    79   74   80 1   
    80   74   81 1   
    81   74   82 1   
    82   75   79 1   
    83   83   84 1   
    84   83   91 1   
    85   84   85 1   
    86   84   87 1   
    87   84   92 1   
    88   85   86 2   
    89   85  102 1   
    90   87   88 1   
    91   87   89 1   
    92   87   93 1   
    93   88   90 1   
    94   88   94 1   
    95   88   95 1   
    96   89   96 1   
    97   89   97 1   
    98   89   98 1   
    99   90   99 1   
   100   90  100 1   
   101   90  101 1   
   102  102  103 1   
   103  102  110 1   
   104  103  104 1   
   105  103  106 1   
   106  103  111 1   
   107  104  105 2   
   108  104  114 1   
   109  106  107 1   
   110  106  112 1   
   111  106  113 1   
   112  107  108 1   
   113  107  109 1   
   114  114  115 1   
   115  114  125 1   
   116  115  116 1   
   117  115  118 1   
   118  115  126 1   
   119  116  117 2   
   120  116  134 1   
   121  118  119 1   
   122  118  127 1   
   123  118  128 1   
   124  119  120 ar  
   125  119  121 ar  
   126  120  122 ar  
   127  120  129 1   
   128  121  123 ar  
   129  121  130 1   
   130  122  124 ar  
   131  122  131 1   
   132  123  124 ar  
   133  123  132 1   
   134  124  133 1   
   135  134  135 1   
   136  134  140 1   
   137  135  136 1   
   138  135  138 1   
   139  135  141 1   
   140  136  137 2   
   141  136  148 1   
   142  138  139 1   
   143  138  142 1   
   144  138  143 1   
   145  139  140 1   
   146  139  144 1   
   147  139  145 1   
   148  140  146 1   
   149  140  147 1   
   150  148  149 1   
   151  148  157 1   
   152  149  150 1   
   153  149  152 1   
   154  149  158 1   
   155  150  151 2   
   156  150  163 1   
   157  152  153 1   
   158  152  159 1   
   159  152  160 1   
   160  153  154 1   
   161  153  161 1   
   162  153  162 1   
   163  154  155 1   
   164  154  156 1   
   165  163  164 1   
   166  163  168 1   
   167  164  165 1   
   168  164  166 1   
   169  164  167 1   
   170  170  171 1   
   171  170  172 1   
   172  173  174 1   
   173  173  175 1   
   174  176  177 1   
   175  176  178 1   
@<TRIPOS>SUBSTRUCTURE
     1 MOL         1 TEMP              0 ****  ****    0 ROOT
