@<TRIPOS>MOLECULE
MOL
  184   179     1     0     0
SMALL
resp


@<TRIPOS>ATOM
      1 C1         -6.2500    7.4970   -0.7780 c3        1 MOL     -0.289589
      2 C2         -5.5570    6.5040    0.2170 c         1 MOL      0.660604
      3 O1         -4.4380    6.7530    0.6460 o         1 MOL     -0.555562
      4 H1         -5.5390    8.2680   -1.0760 hc        1 MOL      0.075228
      5 H2         -6.5850    6.9530   -1.6610 hc        1 MOL      0.075228
      6 H3         -7.1060    7.9630   -0.2910 hc        1 MOL      0.075228
      7 N1         -6.0640    5.2720    0.4550 n         1 MOL     -0.520792
      8 C3         -7.3090    4.5930    0.0670 c3        1 MOL      0.154545
      9 C4         -7.2100    3.6710   -1.1300 c         1 MOL      0.540931
     10 O2         -6.0980    3.1810   -1.4760 o         1 MOL     -0.464824
     11 C5         -7.7640    3.7400    1.2430 c3        1 MOL     -0.223600
     12 C6         -6.7060    2.9100    1.9340 c         1 MOL      0.779645
     13 O3         -6.2850    3.2490    3.0630 o         1 MOL     -0.723509
     14 O4         -6.3030    1.8880    1.3860 o         1 MOL     -0.723509
     15 H4         -5.4080    4.7820    1.0380 hn        1 MOL      0.282801
     16 H5         -8.1350    5.2710   -0.1570 h1        1 MOL      0.041611
     17 H6         -8.5730    3.0490    0.9730 hc        1 MOL      0.044845
     18 H7         -8.1840    4.4410    1.9620 hc        1 MOL      0.044845
     19 N2         -8.3330    3.5040   -1.9480 n         1 MOL     -0.677804
     20 C7         -8.3930    2.9290   -3.3300 c3        1 MOL      0.369327
     21 C8         -7.9810    1.4900   -3.4650 c         1 MOL      0.272006
     22 O5         -8.2140    0.9160   -4.5410 o         1 MOL     -0.516521
     23 C9         -7.7870    3.9830   -4.3560 c3        1 MOL     -0.193539
     24 H8         -9.1580    3.9870   -1.6360 hn        1 MOL      0.296481
     25 H9         -9.4510    2.9790   -3.6240 h1        1 MOL      0.016122
     26 H10        -8.2780    3.7240   -5.2900 hc        1 MOL      0.059992
     27 H11        -8.0710    5.0000   -4.0660 hc        1 MOL      0.059992
     28 H12        -6.6960    3.9750   -4.4250 hc        1 MOL      0.059992
     29 N3         -7.5160    0.8310   -2.4100 n         1 MOL      0.020263
     30 C10        -7.5260   -0.6590   -2.3650 c3        1 MOL     -0.276848
     31 C11        -7.8120   -1.1590   -0.9410 c         1 MOL      0.512653
     32 O6         -7.2660   -0.5660   -0.0540 o         1 MOL     -0.399825
     33 C12        -6.2660   -1.2550   -2.9940 c3        1 MOL      0.130663
     34 C13        -4.9460   -0.5430   -2.6080 c         1 MOL      0.550044
     35 O7         -4.1430   -0.0170   -3.4070 o         1 MOL     -0.641402
     36 O8         -4.6220   -0.6020   -1.4130 o         1 MOL     -0.641402
     37 H13        -7.3340    1.3150   -1.5430 hn        1 MOL      0.056305
     38 H14        -8.3580   -1.0520   -2.9410 h1        1 MOL      0.073518
     39 H15        -6.3810   -1.2050   -4.0750 hc        1 MOL     -0.021017
     40 H16        -6.2310   -2.3360   -2.8400 hc        1 MOL     -0.021017
     41 N4         -8.5320   -2.2870   -0.9030 n         1 MOL     -0.464252
     42 C14        -8.7010   -3.0730    0.3900 c3        1 MOL     -0.189359
     43 C15        -7.4690   -3.9290    0.7530 c         1 MOL      0.554768
     44 O9         -7.2230   -4.1550    1.9410 o         1 MOL     -0.536032
     45 H17        -8.8450   -2.7600   -1.7400 hn        1 MOL      0.329477
     46 H18        -9.4570   -3.8620    0.3640 h1        1 MOL      0.122662
     47 H19        -9.0210   -2.3900    1.1720 h1        1 MOL      0.122662
     48 N5         -6.6700   -4.2920   -0.2640 n         1 MOL     -0.531337
     49 C16        -5.3580   -4.8870   -0.1340 c3        1 MOL      0.386610
     50 C17        -4.3710   -3.8490    0.5090 c         1 MOL      0.273945
     51 O10        -4.7210   -2.7000    0.7060 o         1 MOL     -0.409139
     52 C18        -4.8850   -5.2900   -1.5540 c3        1 MOL     -0.377843
     53 C19        -3.6040   -6.0110   -1.6460 c         1 MOL      0.684700
     54 N6         -2.7580   -5.6930   -2.6280 n         1 MOL     -0.752527
     55 O11        -3.3320   -6.8470   -0.8000 o         1 MOL     -0.554318
     56 H20        -6.9070   -3.9940   -1.2070 hn        1 MOL      0.289544
     57 H21        -5.4190   -5.7740    0.5000 h1        1 MOL      0.031192
     58 H22        -4.8650   -4.4410   -2.2410 hc        1 MOL      0.085973
     59 H23        -5.5900   -6.0420   -1.9180 hc        1 MOL      0.085973
     60 H24        -2.9790   -4.9420   -3.2690 hn        1 MOL      0.374672
     61 H25        -2.0180   -6.3450   -2.8080 hn        1 MOL      0.374672
     62 N7         -3.0770   -4.1850    0.8340 n         1 MOL     -0.384483
     63 C20        -2.0720   -3.3830    1.5820 c3        1 MOL      0.283070
     64 C21        -0.7250   -4.0850    1.7090 c         1 MOL      0.429535
     65 O12        -0.6040   -5.2180    1.3230 o         1 MOL     -0.498450
     66 H26        -2.8660   -5.1480    0.6140 hn        1 MOL      0.226104
     67 H27        -2.4020   -3.2820    2.6150 h1        1 MOL     -0.011095
     68 H28        -2.0610   -2.4070    1.0990 h1        1 MOL     -0.011095
     69 N8          0.3630   -3.3960    2.1110 n         1 MOL     -0.317326
     70 C22         0.4440   -2.0140    2.7570 c3        1 MOL     -0.447449
     71 C23         1.7030   -1.1640    2.4540 c         1 MOL      0.634523
     72 O13         2.8480   -1.6580    2.3450 o         1 MOL     -0.490848
     73 C24         0.2460   -2.0570    4.3410 c3        1 MOL      0.651883
     74 C25         0.0730   -0.7050    5.0090 c3        1 MOL     -0.431215
     75 O14        -0.8720   -2.8200    4.7380 oh        1 MOL     -0.688610
     76 H29         1.2060   -3.9560    2.1220 hn        1 MOL      0.295888
     77 H30        -0.3900   -1.3980    2.4290 h1        1 MOL      0.258191
     78 H31         1.1500   -2.4200    4.8290 h1        1 MOL     -0.037557
     79 H32        -1.3840   -2.1930    5.2550 ho        1 MOL      0.371579
     80 H33        -0.4420   -0.8480    5.9640 hc        1 MOL      0.108441
     81 H34         1.0440   -0.2880    5.2800 hc        1 MOL      0.108441
     82 H35        -0.4340   -0.0910    4.2580 hc        1 MOL      0.108441
     83 N9          1.4480    0.1190    2.1710 n         1 MOL     -0.574008
     84 C26         2.5490    1.1220    1.9310 c3        1 MOL      0.150375
     85 C27         2.8920    1.7470    3.3030 c         1 MOL      0.368689
     86 O15         2.0880    2.5620    3.8340 o         1 MOL     -0.569265
     87 C28         2.1200    2.1720    0.8500 c3        1 MOL      0.213319
     88 C29         2.0100    1.4790   -0.4870 c3        1 MOL      0.077189
     89 C30         3.0740    3.3880    0.7610 c3        1 MOL     -0.234412
     90 C31         1.6990    2.3190   -1.7230 c3        1 MOL     -0.219358
     91 H36         0.4960    0.4400    2.3350 hn        1 MOL      0.253637
     92 H37         3.4350    0.6420    1.5140 h1        1 MOL      0.032209
     93 H38         1.1560    2.5620    1.1870 hc        1 MOL     -0.045817
     94 H39         1.1940    0.7490   -0.5090 hc        1 MOL     -0.017997
     95 H40         2.9250    0.9060   -0.6420 hc        1 MOL     -0.017997
     96 H41         2.7690    4.1010   -0.0020 hc        1 MOL      0.056531
     97 H42         2.9930    3.9070    1.7150 hc        1 MOL      0.056531
     98 H43         4.1180    3.1120    0.5660 hc        1 MOL      0.056531
     99 H44         1.4170    1.6420   -2.5340 hc        1 MOL      0.038172
    100 H45         0.8800    3.0260   -1.5610 hc        1 MOL      0.038172
    101 H46         2.5670    2.8570   -2.0900 hc        1 MOL      0.038172
    102 N10         4.0590    1.4540    3.8630 n         1 MOL     -0.292236
    103 C32         5.0800    0.4940    3.5340 c3        1 MOL      0.088600
    104 C33         6.1070    0.9210    2.4770 c         1 MOL      0.855590
    105 O16         6.0370    2.0890    2.0390 o         1 MOL     -0.605183
    106 C34         5.7400    0.0300    4.8740 c3        1 MOL     -0.237935
    107 C35         6.3650    1.1990    5.6120 c         1 MOL      0.703414
    108 O17         7.5800    1.1840    5.7140 o         1 MOL     -0.702101
    109 O18         5.7210    2.2000    5.9840 o         1 MOL     -0.702101
    110 H47         4.2740    2.0150    4.6790 hn        1 MOL      0.236979
    111 H48         4.6710   -0.4300    3.1380 h1        1 MOL      0.016890
    112 H49         6.5610   -0.6580    4.7080 hc        1 MOL      0.026941
    113 H50         5.0140   -0.5430    5.4430 hc        1 MOL      0.026941
    114 N11         7.0450    0.0100    2.0940 n         1 MOL     -0.802448
    115 C36         7.8980    0.1730    0.9150 c3        1 MOL      0.240138
    116 C37         8.2900   -1.2030    0.3930 c         1 MOL      0.350030
    117 O19         8.7460   -2.0730    1.2190 o         1 MOL     -0.521280
    118 C38         9.0890    1.0550    1.3110 c3        1 MOL     -0.078846
    119 C39        10.0740    1.3420    0.2020 ca        1 MOL      0.031725
    120 C40        10.9740    0.3550   -0.3630 ca        1 MOL     -0.156853
    121 C41         9.8570    2.5020   -0.4930 ca        1 MOL     -0.156853
    122 C42        11.7930    0.7240   -1.4600 ca        1 MOL     -0.125739
    123 C43        10.6110    2.8450   -1.5970 ca        1 MOL     -0.125739
    124 C44        11.6530    1.9810   -2.0470 ca        1 MOL     -0.104998
    125 H51         7.1080   -0.8850    2.5580 hn        1 MOL      0.390527
    126 H52         7.4420    0.6790    0.0680 h1        1 MOL     -0.019934
    127 H53         9.7450    0.5130    1.9930 hc        1 MOL      0.078248
    128 H54         8.8640    2.0040    1.7950 hc        1 MOL      0.078248
    129 H55        11.0840   -0.6420    0.0330 ha        1 MOL      0.130901
    130 H56         9.0360    3.1200   -0.1730 ha        1 MOL      0.130901
    131 H57        12.5600    0.0880   -1.8890 ha        1 MOL      0.098357
    132 H58        10.3250    3.7560   -2.0970 ha        1 MOL      0.098357
    133 H59        12.3780    2.2250   -2.8120 ha        1 MOL      0.086222
    134 N12         8.1910   -1.4600   -0.9670 n         1 MOL     -0.070470
    135 C45         7.7880   -0.5540   -2.0790 c3        1 MOL      0.140559
    136 C46         6.2830   -0.3880   -2.1520 c         1 MOL      0.427502
    137 O20         5.5840   -0.6860   -1.1920 o         1 MOL     -0.484028
    138 C47         8.4840   -1.0240   -3.3640 c3        1 MOL      0.088823
    139 C48         9.4960   -2.0960   -2.9210 c3        1 MOL      0.054852
    140 C49         8.8400   -2.6170   -1.5880 c3        1 MOL     -0.149509
    141 H60         8.3740    0.3480   -1.8960 h1        1 MOL     -0.016786
    142 H61         7.7610   -1.4530   -4.0550 hc        1 MOL     -0.023765
    143 H62         8.9770   -0.2250   -3.9070 hc        1 MOL     -0.023765
    144 H63         9.6410   -2.9100   -3.6300 hc        1 MOL     -0.014814
    145 H64        10.4730   -1.6570   -2.6840 hc        1 MOL     -0.014814
    146 H65         8.0610   -3.2970   -1.9380 h1        1 MOL      0.089386
    147 H66         9.5190   -3.1050   -0.8800 h1        1 MOL      0.089386
    148 N13         5.8120    0.0740   -3.3100 n         1 MOL     -0.488873
    149 C50         4.4500    0.5980   -3.5080 c3        1 MOL      0.449991
    150 C51         4.4940    1.6490   -4.6880 c         1 MOL      0.214395
    151 O21         4.0700    1.3290   -5.7780 o         1 MOL     -0.468186
    152 C52         3.3690   -0.5460   -3.5830 c3        1 MOL      0.015131
    153 C53         3.5120   -1.5870   -4.6860 c3        1 MOL     -0.095931
    154 C54         4.5950   -2.6330   -4.4240 c         1 MOL      0.824413
    155 O22         4.1910   -3.6070   -3.7910 o         1 MOL     -0.766734
    156 O23         5.6840   -2.5390   -4.8860 o         1 MOL     -0.766734
    157 H67         6.4120    0.0540   -4.1200 hn        1 MOL      0.272419
    158 H68         4.1530    1.1670   -2.6260 h1        1 MOL      0.024451
    159 H69         2.3920   -0.0660   -3.7470 hc        1 MOL     -0.008318
    160 H70         3.2560   -1.0950   -2.6430 hc        1 MOL     -0.008318
    161 H71         3.6790   -1.0870   -5.6390 hc        1 MOL     -0.031632
    162 H72         2.5860   -2.1020   -4.9160 hc        1 MOL     -0.031632
    163 N14         5.2060    2.8040   -4.5510 n         1 MOL     -0.306963
    164 C55         5.9890    3.3030   -3.4050 c3        1 MOL     -0.130567
    165 H73         5.7080    4.3360   -3.1960 h1        1 MOL      0.067784
    166 H74         5.7860    2.6880   -2.5290 h1        1 MOL      0.067784
    167 H75         7.0520    3.2580   -3.6440 h1        1 MOL      0.067784
    168 H76         5.2330    3.4590   -5.3250 hn        1 MOL      0.264642
    169 Ca1        -4.7890   -0.1100    1.3050 Ca        1 MOL      1.699994
    170 O24        -4.4140    1.4720    3.5220 oh        1 MOL     -0.863225
    171 H77        -5.1240    2.0730    3.2870 ho        1 MOL      0.419911
    172 H78        -3.9650    1.9070    4.2470 ho        1 MOL      0.419911
    173 O25        -3.5350    2.2180    0.1670 oh        1 MOL     -0.863225
    174 H79        -2.9830    2.4530   -0.5810 ho        1 MOL      0.419911
    175 H80        -4.0950    2.9950    0.2980 ho        1 MOL      0.419911
    176 O26        -3.9660   -1.5240    3.6240 oh        1 MOL     -0.863225
    177 H81        -4.5380   -2.2540    3.8700 ho        1 MOL      0.419911
    178 H82        -3.4180   -1.3790    4.3930 ho        1 MOL      0.419911
    179 O27        -6.9620   -0.8760    2.7570 oh        1 MOL     -0.863225
    180 H83        -7.8340   -0.5210    2.5850 ho        1 MOL      0.419911
    181 H84        -7.0100   -1.2140    3.6560 ho        1 MOL      0.419911
    182 O28        -2.0770    0.2580    2.0270 oh        1 MOL     -0.863225
    183 H85        -1.7530    0.3330    1.1360 ho        1 MOL      0.419911
    184 H86        -2.1100    1.1610    2.3400 ho        1 MOL      0.419911
@<TRIPOS>BOND
     1    1    2 1   
     2    1    4 1   
     3    1    5 1   
     4    1    6 1   
     5    2    3 2   
     6    2    7 1   
     7    7    8 1   
     8    7   15 1   
     9    8    9 1   
    10    8   11 1   
    11    8   16 1   
    12    9   10 2   
    13    9   19 1   
    14   11   12 1   
    15   11   17 1   
    16   11   18 1   
    17   12   13 1   
    18   12   14 1   
    19   19   20 1   
    20   19   24 1   
    21   20   21 1   
    22   20   23 1   
    23   20   25 1   
    24   21   22 2   
    25   21   29 1   
    26   23   26 1   
    27   23   27 1   
    28   23   28 1   
    29   29   30 1   
    30   29   37 1   
    31   30   31 1   
    32   30   33 1   
    33   30   38 1   
    34   31   32 2   
    35   31   41 1   
    36   33   34 1   
    37   33   39 1   
    38   33   40 1   
    39   34   35 1   
    40   34   36 1   
    41   41   42 1   
    42   41   45 1   
    43   42   43 1   
    44   42   46 1   
    45   42   47 1   
    46   43   44 2   
    47   43   48 1   
    48   48   49 1   
    49   48   56 1   
    50   49   50 1   
    51   49   52 1   
    52   49   57 1   
    53   50   51 2   
    54   50   62 1   
    55   52   53 1   
    56   52   58 1   
    57   52   59 1   
    58   53   54 1   
    59   53   55 2   
    60   54   60 1   
    61   54   61 1   
    62   62   63 1   
    63   62   66 1   
    64   63   64 1   
    65   63   67 1   
    66   63   68 1   
    67   64   65 2   
    68   64   69 1   
    69   69   70 1   
    70   69   76 1   
    71   70   71 1   
    72   70   73 1   
    73   70   77 1   
    74   71   72 2   
    75   71   83 1   
    76   73   74 1   
    77   73   75 1   
    78   73   78 1   
    79   74   80 1   
    80   74   81 1   
    81   74   82 1   
    82   75   79 1   
    83   83   84 1   
    84   83   91 1   
    85   84   85 1   
    86   84   87 1   
    87   84   92 1   
    88   85   86 2   
    89   85  102 1   
    90   87   88 1   
    91   87   89 1   
    92   87   93 1   
    93   88   90 1   
    94   88   94 1   
    95   88   95 1   
    96   89   96 1   
    97   89   97 1   
    98   89   98 1   
    99   90   99 1   
   100   90  100 1   
   101   90  101 1   
   102  102  103 1   
   103  102  110 1   
   104  103  104 1   
   105  103  106 1   
   106  103  111 1   
   107  104  105 2   
   108  104  114 1   
   109  106  107 1   
   110  106  112 1   
   111  106  113 1   
   112  107  108 1   
   113  107  109 1   
   114  114  115 1   
   115  114  125 1   
   116  115  116 1   
   117  115  118 1   
   118  115  126 1   
   119  116  117 2   
   120  116  134 1   
   121  118  119 1   
   122  118  127 1   
   123  118  128 1   
   124  119  120 ar  
   125  119  121 ar  
   126  120  122 ar  
   127  120  129 1   
   128  121  123 ar  
   129  121  130 1   
   130  122  124 ar  
   131  122  131 1   
   132  123  124 ar  
   133  123  132 1   
   134  124  133 1   
   135  134  135 1   
   136  134  140 1   
   137  135  136 1   
   138  135  138 1   
   139  135  141 1   
   140  136  137 2   
   141  136  148 1   
   142  138  139 1   
   143  138  142 1   
   144  138  143 1   
   145  139  140 1   
   146  139  144 1   
   147  139  145 1   
   148  140  146 1   
   149  140  147 1   
   150  148  149 1   
   151  148  157 1   
   152  149  150 1   
   153  149  152 1   
   154  149  158 1   
   155  150  151 2   
   156  150  163 1   
   157  152  153 1   
   158  152  159 1   
   159  152  160 1   
   160  153  154 1   
   161  153  161 1   
   162  153  162 1   
   163  154  155 1   
   164  154  156 1   
   165  163  164 1   
   166  163  168 1   
   167  164  165 1   
   168  164  166 1   
   169  164  167 1   
   170  170  171 1   
   171  170  172 1   
   172  173  174 1   
   173  173  175 1   
   174  176  177 1   
   175  176  178 1   
   176  179  180 1   
   177  179  181 1   
   178  182  183 1   
   179  182  184 1   
@<TRIPOS>SUBSTRUCTURE
     1 MOL         1 TEMP              0 ****  ****    0 ROOT
