@<TRIPOS>MOLECULE
MOL
  182   178     1     0     0
SMALL
resp


@<TRIPOS>ATOM
      1 C1          2.4470   -6.5880    4.3570 c3        1 MOL     -0.382689
      2 C2          2.0860   -5.7490    3.0800 c         1 MOL      0.772071
      3 O1          1.2690   -6.0090    2.2220 o         1 MOL     -0.625371
      4 H1          3.2760   -7.2580    4.1290 hc        1 MOL      0.099436
      5 H2          2.7360   -5.9150    5.1640 hc        1 MOL      0.099436
      6 H3          1.5810   -7.1750    4.6630 hc        1 MOL      0.099436
      7 N1          2.8020   -4.5950    3.0030 n         1 MOL     -0.668634
      8 C3          2.7170   -3.6970    1.8250 c3        1 MOL      0.189748
      9 C4          2.9890   -4.4860    0.5070 c         1 MOL      0.500237
     10 O2          4.0590   -5.0820    0.3760 o         1 MOL     -0.528347
     11 C5          3.7730   -2.6160    1.9970 c3        1 MOL     -0.161389
     12 C6          3.5720   -1.3950    1.0500 c         1 MOL      0.919089
     13 O3          3.6790   -0.2640    1.4600 o         1 MOL     -0.800991
     14 O4          3.1840   -1.6100   -0.1100 o         1 MOL     -0.800991
     15 H4          3.2230   -4.2660    3.8660 hn        1 MOL      0.341143
     16 H5          1.7220   -3.2460    1.8000 h1        1 MOL     -0.002335
     17 H6          4.7560   -3.0430    1.8170 hc        1 MOL      0.034599
     18 H7          3.5800   -2.2250    2.9960 hc        1 MOL      0.034599
     19 N2          2.0410   -4.5020   -0.4860 n         1 MOL     -0.248122
     20 C7          2.0910   -5.3770   -1.7250 c3        1 MOL     -0.071089
     21 C8          2.8850   -4.6370   -2.8100 c         1 MOL      0.556467
     22 O5          3.0690   -5.2960   -3.8720 o         1 MOL     -0.567229
     23 C9          0.6690   -5.7110   -2.3010 c3        1 MOL     -0.037212
     24 C10        -0.2690   -6.2550   -1.1870 c3        1 MOL      0.081243
     25 C11        -1.7590   -6.3770   -1.6560 c3        1 MOL      0.000496
     26 C12        -2.6710   -7.0700   -0.6200 c3        1 MOL      0.003003
     27 N3         -2.2710   -8.4990   -0.4610 n4        1 MOL     -0.306905
     28 H8          1.2090   -3.9650   -0.3200 hn        1 MOL      0.244872
     29 H9          2.5960   -6.3350   -1.5670 h1        1 MOL      0.112473
     30 H10         0.8500   -6.4470   -3.0890 hc        1 MOL      0.020556
     31 H11         0.2470   -4.8230   -2.7650 hc        1 MOL      0.020556
     32 H12        -0.2610   -5.6110   -0.3090 hc        1 MOL      0.010346
     33 H13         0.0640   -7.2470   -0.8820 hc        1 MOL      0.010346
     34 H14        -1.7840   -7.0500   -2.5100 hc        1 MOL      0.014510
     35 H15        -2.1650   -5.4100   -1.9680 hc        1 MOL      0.014510
     36 H16        -3.6770   -7.1120   -1.0410 hx        1 MOL      0.086873
     37 H17        -2.7710   -6.4830    0.2890 hx        1 MOL      0.086873
     38 H18        -1.3580   -8.6130   -0.0430 hn        1 MOL      0.276915
     39 H19        -2.9510   -8.8420    0.2040 hn        1 MOL      0.276915
     40 H20        -2.4170   -8.9530   -1.3550 hn        1 MOL      0.276915
     41 N4          3.4380   -3.4030   -2.6730 n         1 MOL     -0.325670
     42 C13         4.4120   -2.7620   -3.5880 c3        1 MOL      0.168400
     43 C14         5.6830   -2.4550   -2.8870 c         1 MOL      0.335261
     44 O6          6.7180   -2.3660   -3.5230 o         1 MOL     -0.515374
     45 C15         3.7980   -1.6260   -4.2980 c3        1 MOL     -0.393663
     46 C16         3.0440   -0.6370   -3.3130 c         1 MOL      0.892293
     47 O7          3.6980    0.2290   -2.7040 o         1 MOL     -0.783894
     48 O8          1.8010   -0.6000   -3.1240 o         1 MOL     -0.783894
     49 H21         3.1190   -2.8310   -1.9010 hn        1 MOL      0.069020
     50 H22         4.5560   -3.5040   -4.3820 h1        1 MOL      0.097224
     51 H23         2.9610   -2.0250   -4.8680 hc        1 MOL      0.109784
     52 H24         4.5100   -1.0750   -4.8960 hc        1 MOL      0.109784
     53 N5          5.6560   -2.0720   -1.5840 n         1 MOL     -0.004717
     54 C17         6.8520   -1.5260   -0.9430 c3        1 MOL     -0.319139
     55 C18         7.2130   -0.0320   -0.9830 c         1 MOL      0.654040
     56 O9          8.2680    0.3010   -0.4300 o         1 MOL     -0.576316
     57 H25         4.7550   -2.0670   -1.1270 hn        1 MOL      0.020406
     58 H26         7.7370   -2.0740   -1.2420 h1        1 MOL      0.137626
     59 H27         6.6700   -1.6470    0.1230 h1        1 MOL      0.137626
     60 N6          6.2910    0.7660   -1.5620 n         1 MOL     -0.507562
     61 C19         6.3110    2.2290   -1.4890 c3        1 MOL      0.312618
     62 C20         5.0360    2.9070   -0.9630 c         1 MOL      0.402849
     63 O10         3.9480    2.3470   -0.7860 o         1 MOL     -0.437680
     64 C21         6.7930    2.8710   -2.8700 c3        1 MOL     -0.212733
     65 C22         7.9850    3.8150   -2.7040 c         1 MOL      0.517692
     66 N7          9.2360    3.5110   -3.0030 n         1 MOL     -0.647747
     67 O11         7.8030    4.8550   -2.0920 o         1 MOL     -0.521153
     68 H28         5.5850    0.3470   -2.1420 hn        1 MOL      0.332745
     69 H29         7.1340    2.4770   -0.8040 h1        1 MOL      0.028125
     70 H30         6.0130    3.5200   -3.2610 hc        1 MOL      0.060011
     71 H31         7.0650    2.1420   -3.6360 hc        1 MOL      0.060011
     72 H32         9.3970    2.6170   -3.4410 hn        1 MOL      0.338913
     73 H33         9.9860    4.1870   -3.0420 hn        1 MOL      0.338913
     74 N8          5.1780    4.2160   -0.7210 n         1 MOL     -0.315960
     75 C23         4.0130    5.1010   -0.4310 c3        1 MOL     -0.204546
     76 C24         3.1820    4.7420    0.7670 c         1 MOL      0.543611
     77 O12         3.7560    4.4630    1.7910 o         1 MOL     -0.483733
     78 H34         6.0430    4.6880   -0.9590 hn        1 MOL      0.248734
     79 H35         3.4210    5.2370   -1.3370 h1        1 MOL      0.113370
     80 H36         4.5190    6.0340   -0.1710 h1        1 MOL      0.113370
     81 N9          1.8350    4.7490    0.6130 n         1 MOL     -0.435771
     82 C25         0.8980    4.4510    1.6610 c3        1 MOL      0.182635
     83 C26         0.9760    2.9210    2.0010 c         1 MOL      0.526785
     84 O13         1.5800    2.1310    1.3190 o         1 MOL     -0.453263
     85 C27        -0.4800    4.8580    1.4260 c3        1 MOL     -0.065283
     86 C28        -0.6870    6.3140    1.1010 ca        1 MOL      0.019265
     87 C29        -0.1250    7.3210    1.9260 ca        1 MOL     -0.137939
     88 C30        -1.1730    6.7490   -0.1550 ca        1 MOL     -0.137939
     89 C31        -0.1290    8.6810    1.5770 ca        1 MOL     -0.274914
     90 C32        -1.2210    8.1340   -0.5070 ca        1 MOL     -0.274914
     91 C33        -0.6530    9.0940    0.3640 ca        1 MOL      0.346370
     92 O14        -0.4000   10.3830   -0.0660 oh        1 MOL     -0.466187
     93 H37         1.4310    5.0570   -0.2570 hn        1 MOL      0.221629
     94 H38         1.2040    4.9330    2.5910 h1        1 MOL      0.048072
     95 H39        -1.0240    4.6900    2.3600 hc        1 MOL      0.027084
     96 H40        -0.9170    4.2150    0.6710 hc        1 MOL      0.027084
     97 H41         0.2250    7.1190    2.9260 ha        1 MOL      0.125885
     98 H42        -1.5310    6.0470   -0.8890 ha        1 MOL      0.125885
     99 H43         0.2010    9.4570    2.2530 ha        1 MOL      0.165178
    100 H44        -1.5550    8.4530   -1.4780 ha        1 MOL      0.165178
    101 H45        -0.7810   10.5270   -0.9390 ho        1 MOL      0.352502
    102 N10         0.3190    2.4250    3.0720 n         1 MOL     -0.635579
    103 C34         0.4760    1.0270    3.6460 c3        1 MOL      0.101896
    104 C35         0.0460   -0.0800    2.6560 c         1 MOL      0.610017
    105 O15         0.5020   -0.2000    1.5130 o         1 MOL     -0.566772
    106 C36         1.9250    0.8540    4.2310 c3        1 MOL     -0.079159
    107 C37         2.1770   -0.4450    4.9170 c3        1 MOL     -0.041384
    108 C38         2.1620    2.0280    5.1690 c3        1 MOL     -0.183047
    109 C39         1.4780   -0.6370    6.2200 c3        1 MOL     -0.192222
    110 H46        -0.1590    3.0550    3.6910 hn        1 MOL      0.329799
    111 H47        -0.1360    0.9160    4.5500 h1        1 MOL      0.062295
    112 H48         2.6080    1.0820    3.4160 hc        1 MOL      0.174851
    113 H49         3.2470   -0.5610    5.0540 hc        1 MOL      0.060174
    114 H50         1.8730   -1.2230    4.2160 hc        1 MOL      0.060174
    115 H51         2.2240    2.9880    4.6700 hc        1 MOL      0.059624
    116 H52         1.2710    2.1520    5.7880 hc        1 MOL      0.059624
    117 H53         2.9790    1.8770    5.8720 hc        1 MOL      0.059624
    118 H54         0.6350    0.0200    6.4710 hc        1 MOL      0.048081
    119 H55         1.1850   -1.6820    6.3000 hc        1 MOL      0.048081
    120 H56         2.1770   -0.5600    7.0480 hc        1 MOL      0.048081
    121 N11        -0.7250   -1.0020    3.2050 n         1 MOL     -0.642784
    122 C40        -1.2380   -2.1870    2.4670 c3        1 MOL      0.414526
    123 C41        -2.6040   -2.0380    1.7640 c         1 MOL      0.406416
    124 O16        -3.0220   -3.0160    1.1310 o         1 MOL     -0.520425
    125 C42        -1.3620   -3.3400    3.4640 c3        1 MOL     -0.110579
    126 O17        -0.1510   -3.6450    4.0960 oh        1 MOL     -0.510056
    127 H57        -0.7820   -1.0830    4.2100 hn        1 MOL      0.300893
    128 H58        -0.4760   -2.3110    1.7050 h1        1 MOL     -0.004251
    129 H59        -1.7130   -4.1920    2.8800 h1        1 MOL      0.089804
    130 H60        -2.1840   -2.9520    4.0740 h1        1 MOL      0.089804
    131 H61        -0.1680   -3.9460    5.0090 ho        1 MOL      0.386745
    132 N12        -3.1050   -0.7660    1.7780 n         1 MOL     -0.482850
    133 C43        -4.3910   -0.3880    1.2320 c3        1 MOL      0.279526
    134 C44        -4.3980    0.9970    0.6550 c         1 MOL      0.566033
    135 O18        -3.6330    1.8120    1.1670 o         1 MOL     -0.562529
    136 C45        -5.6230   -0.7030    2.1350 c3        1 MOL     -0.231916
    137 H62        -2.6620   -0.0590    2.3440 hn        1 MOL      0.244561
    138 H63        -4.6090   -0.9310    0.3140 h1        1 MOL      0.021703
    139 H64        -6.5300   -0.4090    1.6040 hc        1 MOL      0.072547
    140 H65        -5.7290   -1.7780    2.2910 hc        1 MOL      0.072547
    141 H66        -5.5490   -0.1770    3.0850 hc        1 MOL      0.072547
    142 N13        -5.0620    1.2600   -0.4740 n         1 MOL     -0.706485
    143 C46        -6.1830    0.5400   -1.1100 c3        1 MOL      0.599048
    144 C47        -7.1880    1.5490   -1.7490 c         1 MOL      0.253378
    145 O19        -6.9210    2.6980   -2.1220 o         1 MOL     -0.503905
    146 C48        -5.5550   -0.3350   -2.2210 c3        1 MOL     -0.492236
    147 H67        -4.7420    2.1300   -0.8830 hn        1 MOL      0.338169
    148 H68        -6.8160   -0.0590   -0.4510 h1        1 MOL     -0.142182
    149 H69        -5.0410    0.2260   -2.9960 hc        1 MOL      0.137826
    150 H70        -4.9160   -1.1140   -1.8080 hc        1 MOL      0.137826
    151 H71        -6.3380   -0.9200   -2.7060 hc        1 MOL      0.137826
    152 N14        -8.4570    1.1500   -1.9390 n         1 MOL     -0.238948
    153 C49        -9.0760   -0.1580   -1.6990 c3        1 MOL     -0.089547
    154 C50        -9.3360   -0.4300   -0.1440 c         1 MOL      0.667616
    155 O20        -9.3580   -1.5930    0.2450 o         1 MOL     -0.571524
    156 C51       -10.3430   -0.2650   -2.5020 c3        1 MOL     -0.092119
    157 C52       -11.5000    0.5150   -1.8720 c3        1 MOL     -0.040579
    158 C53       -12.7880    0.7070   -2.6880 c         1 MOL      0.615834
    159 O21       -13.8940    0.4070   -2.1390 o         1 MOL     -0.649676
    160 O22       -12.6740    0.8980   -3.9420 o         1 MOL     -0.649676
    161 H72        -9.1220    1.8960   -2.1080 hn        1 MOL      0.278805
    162 H73        -8.4450   -0.9440   -2.1250 h1        1 MOL      0.034965
    163 H74       -10.6250   -1.3180   -2.4180 hc        1 MOL      0.065052
    164 H75       -10.1580    0.1920   -3.4710 hc        1 MOL      0.065052
    165 H76       -11.2490    1.5350   -1.5790 hc        1 MOL     -0.019083
    166 H77       -11.7850    0.0070   -0.9510 hc        1 MOL     -0.019083
    167 N15        -9.5450    0.6500    0.6280 n         1 MOL     -0.349640
    168 C54        -9.7070    0.6560    2.0720 c3        1 MOL     -0.062710
    169 H78       -10.6600    1.1190    2.3280 h1        1 MOL      0.063729
    170 H79        -9.6900   -0.3690    2.4440 h1        1 MOL      0.063729
    171 H80        -8.8940    1.2220    2.5270 h1        1 MOL      0.063729
    172 H81        -9.4290    1.5590    0.1990 hn        1 MOL      0.250907
    173 Ca1         1.8490    0.5050   -0.6710 Ca        1 MOL      1.747363
    174 O23        -0.8590    1.1410   -0.8410 oh        1 MOL     -0.807849
    175 H82        -1.3920    1.6140   -0.1920 ho        1 MOL      0.395886
    176 H83        -1.4850    0.8490   -1.4980 ho        1 MOL      0.395886
    177 O24         1.2990    2.6930   -2.1270 oh        1 MOL     -0.807849
    178 H84         1.1490    2.6310   -3.0710 ho        1 MOL      0.395886
    179 H85         0.9020    3.5350   -1.8860 ho        1 MOL      0.395886
    180 O25        -0.0980   -1.9440   -1.3140 oh        1 MOL     -0.807849
    181 H86        -0.9970   -2.2270   -1.4640 ho        1 MOL      0.395886
    182 H87         0.2650   -1.8300   -2.2010 ho        1 MOL      0.395886
@<TRIPOS>BOND
     1    1    2 1   
     2    1    4 1   
     3    1    5 1   
     4    1    6 1   
     5    2    3 2   
     6    2    7 1   
     7    7    8 1   
     8    7   15 1   
     9    8    9 1   
    10    8   11 1   
    11    8   16 1   
    12    9   10 2   
    13    9   19 1   
    14   11   12 1   
    15   11   17 1   
    16   11   18 1   
    17   12   13 1   
    18   12   14 1   
    19   19   20 1   
    20   19   28 1   
    21   20   21 1   
    22   20   23 1   
    23   20   29 1   
    24   21   22 2   
    25   21   41 1   
    26   23   24 1   
    27   23   30 1   
    28   23   31 1   
    29   24   25 1   
    30   24   32 1   
    31   24   33 1   
    32   25   26 1   
    33   25   34 1   
    34   25   35 1   
    35   26   27 1   
    36   26   36 1   
    37   26   37 1   
    38   27   38 1   
    39   27   39 1   
    40   27   40 1   
    41   41   42 1   
    42   41   49 1   
    43   42   43 1   
    44   42   45 1   
    45   42   50 1   
    46   43   44 2   
    47   43   53 1   
    48   45   46 1   
    49   45   51 1   
    50   45   52 1   
    51   46   47 1   
    52   46   48 1   
    53   53   54 1   
    54   53   57 1   
    55   54   55 1   
    56   54   58 1   
    57   54   59 1   
    58   55   56 2   
    59   55   60 1   
    60   60   61 1   
    61   60   68 1   
    62   61   62 1   
    63   61   64 1   
    64   61   69 1   
    65   62   63 2   
    66   62   74 1   
    67   64   65 1   
    68   64   70 1   
    69   64   71 1   
    70   65   66 1   
    71   65   67 2   
    72   66   72 1   
    73   66   73 1   
    74   74   75 1   
    75   74   78 1   
    76   75   76 1   
    77   75   79 1   
    78   75   80 1   
    79   76   77 2   
    80   76   81 1   
    81   81   82 1   
    82   81   93 1   
    83   82   83 1   
    84   82   85 1   
    85   82   94 1   
    86   83   84 2   
    87   83  102 1   
    88   85   86 1   
    89   85   95 1   
    90   85   96 1   
    91   86   87 ar  
    92   86   88 ar  
    93   87   89 ar  
    94   87   97 1   
    95   88   90 ar  
    96   88   98 1   
    97   89   91 ar  
    98   89   99 1   
    99   90   91 ar  
   100   90  100 1   
   101   91   92 1   
   102   92  101 1   
   103  102  103 1   
   104  102  110 1   
   105  103  104 1   
   106  103  106 1   
   107  103  111 1   
   108  104  105 2   
   109  104  121 1   
   110  106  107 1   
   111  106  108 1   
   112  106  112 1   
   113  107  109 1   
   114  107  113 1   
   115  107  114 1   
   116  108  115 1   
   117  108  116 1   
   118  108  117 1   
   119  109  118 1   
   120  109  119 1   
   121  109  120 1   
   122  121  122 1   
   123  121  127 1   
   124  122  123 1   
   125  122  125 1   
   126  122  128 1   
   127  123  124 2   
   128  123  132 1   
   129  125  126 1   
   130  125  129 1   
   131  125  130 1   
   132  126  131 1   
   133  132  133 1   
   134  132  137 1   
   135  133  134 1   
   136  133  136 1   
   137  133  138 1   
   138  134  135 2   
   139  134  142 1   
   140  136  139 1   
   141  136  140 1   
   142  136  141 1   
   143  142  143 1   
   144  142  147 1   
   145  143  144 1   
   146  143  146 1   
   147  143  148 1   
   148  144  145 2   
   149  144  152 1   
   150  146  149 1   
   151  146  150 1   
   152  146  151 1   
   153  152  153 1   
   154  152  161 1   
   155  153  154 1   
   156  153  156 1   
   157  153  162 1   
   158  154  155 2   
   159  154  167 1   
   160  156  157 1   
   161  156  163 1   
   162  156  164 1   
   163  157  158 1   
   164  157  165 1   
   165  157  166 1   
   166  158  159 1   
   167  158  160 1   
   168  167  168 1   
   169  167  172 1   
   170  168  169 1   
   171  168  170 1   
   172  168  171 1   
   173  174  175 1   
   174  174  176 1   
   175  177  178 1   
   176  177  179 1   
   177  180  181 1   
   178  180  182 1   
@<TRIPOS>SUBSTRUCTURE
     1 MOL         1 TEMP              0 ****  ****    0 ROOT
