@<TRIPOS>MOLECULE
MOL
  195   189     1     0     0
SMALL
resp


@<TRIPOS>ATOM
      1 C1         -3.1710   -2.5430    3.4540 c3        1 MOL     -0.635813
      2 C2         -2.6610   -2.7620    2.0310 c         1 MOL      0.740159
      3 O1         -2.1020   -1.8460    1.3540 o         1 MOL     -0.482511
      4 H1         -2.8330   -1.5710    3.8140 hc        1 MOL      0.171240
      5 H2         -4.2600   -2.5730    3.4580 hc        1 MOL      0.171240
      6 H3         -2.7820   -3.3270    4.1050 hc        1 MOL      0.171240
      7 N1         -2.8370   -4.0140    1.5090 n         1 MOL     -0.724366
      8 C3         -2.2320   -4.4870    0.2260 c3        1 MOL     -0.014471
      9 C4         -0.6610   -4.3400    0.1640 c         1 MOL      0.640085
     10 O2         -0.0210   -4.1730   -0.9070 o         1 MOL     -0.508777
     11 C5         -2.9590   -3.9670   -1.0180 c3        1 MOL     -0.177323
     12 C6         -4.4850   -4.0870   -0.8760 c         1 MOL      0.833271
     13 O3         -5.2790   -3.1050   -1.0020 o         1 MOL     -0.784270
     14 O4         -5.0140   -5.2080   -0.6510 o         1 MOL     -0.784270
     15 H4         -3.3180   -4.7110    2.0560 hn        1 MOL      0.350472
     16 H5         -2.3660   -5.5640    0.1920 h1        1 MOL      0.125281
     17 H6         -2.6070   -4.3080   -1.9980 hc        1 MOL      0.068158
     18 H7         -2.7860   -2.8900   -1.0320 hc        1 MOL      0.068158
     19 N2          0.0410   -4.5550    1.2950 n         1 MOL     -0.549737
     20 C7          1.4530   -4.8390    1.4380 c3        1 MOL     -0.107031
     21 C8          1.8830   -6.2270    0.7570 c         1 MOL      0.693146
     22 O5          1.0210   -7.0080    0.4680 o         1 MOL     -0.585920
     23 C9          1.8970   -4.7550    2.9220 c3        1 MOL      0.160878
     24 C10         1.2770   -5.7760    3.8890 c3        1 MOL      0.093548
     25 C11         1.9100   -3.3020    3.4040 c3        1 MOL     -0.473807
     26 C12         2.0910   -5.9230    5.2260 c3        1 MOL     -0.327048
     27 H8         -0.4770   -4.6060    2.1530 hn        1 MOL      0.282499
     28 H9          2.0410   -4.0520    0.9720 h1        1 MOL      0.162575
     29 H10         2.9580   -4.9870    3.0010 hc        1 MOL      0.078805
     30 H11         1.2200   -6.7560    3.4170 hc        1 MOL     -0.008267
     31 H12         0.2420   -5.5480    4.1260 hc        1 MOL     -0.008267
     32 H13         2.4220   -3.2230    4.3610 hc        1 MOL      0.121898
     33 H14         2.3910   -2.7480    2.6040 hc        1 MOL      0.121898
     34 H15         0.8420   -3.1710    3.5860 hc        1 MOL      0.121898
     35 H16         1.4560   -6.4850    5.9140 hc        1 MOL      0.075302
     36 H17         3.1030   -6.2850    4.9950 hc        1 MOL      0.075302
     37 H18         2.1710   -4.9920    5.7760 hc        1 MOL      0.075302
     38 N3          3.1490   -6.4610    0.2780 n         1 MOL     -0.537039
     39 C13         4.2840   -5.5620    0.3730 c3        1 MOL     -0.265599
     40 C14         5.0490   -5.6470   -0.9250 c         1 MOL      0.728795
     41 O6          5.4040   -6.6850   -1.3600 o         1 MOL     -0.563242
     42 C15         5.2500   -5.9430    1.4860 c3        1 MOL     -0.034188
     43 C16         6.6120   -5.2060    1.4430 c         1 MOL      0.620735
     44 O7          7.5200   -5.5360    0.6440 o         1 MOL     -0.695739
     45 O8          6.7440   -4.3120    2.3100 o         1 MOL     -0.695739
     46 H19         3.2180   -7.1160   -0.4880 hn        1 MOL      0.319398
     47 H20         3.9240   -4.5390    0.4570 h1        1 MOL      0.043488
     48 H21         5.4080   -7.0180    1.3650 hc        1 MOL      0.021354
     49 H22         4.7260   -5.9340    2.4440 hc        1 MOL      0.021354
     50 N4          5.6150   -4.6060   -1.4370 n         1 MOL     -0.372799
     51 C17         6.4360   -4.6910   -2.6850 c3        1 MOL     -0.388375
     52 C18         7.0690   -3.3870   -3.1400 c         1 MOL      0.752561
     53 O9          8.0440   -3.4130   -3.9150 o         1 MOL     -0.637846
     54 H23         5.7080   -3.7630   -0.8840 hn        1 MOL      0.312250
     55 H24         5.7120   -5.0370   -3.4240 h1        1 MOL      0.168938
     56 H25         7.1770   -5.4620   -2.5100 h1        1 MOL      0.168938
     57 N5          6.6430   -2.2410   -2.7260 n         1 MOL     -0.392505
     58 C19         7.2130   -0.9360   -3.1680 c3        1 MOL      0.008353
     59 C20         7.9250   -0.2200   -2.0720 c         1 MOL      0.483163
     60 O10         9.0430    0.2650   -2.2940 o         1 MOL     -0.574754
     61 C21         6.0940    0.0140   -3.7190 c3        1 MOL     -0.180447
     62 C22         4.8770    0.2010   -2.7790 c         1 MOL      0.744372
     63 O11         3.8370   -0.4110   -3.1060 o         1 MOL     -0.693783
     64 O12         4.9400    1.0820   -1.8920 o         1 MOL     -0.693783
     65 H26         5.9680   -2.2870   -1.9700 hn        1 MOL      0.139095
     66 H27         7.9680   -1.0740   -3.9360 h1        1 MOL      0.119076
     67 H28         5.7790   -0.3040   -4.7210 hc        1 MOL      0.031103
     68 H29         6.6520    0.9120   -3.9820 hc        1 MOL      0.031103
     69 N6          7.5340   -0.2200   -0.8350 n         1 MOL     -0.242743
     70 C23         8.2040    0.5010    0.3310 c3        1 MOL     -0.366178
     71 C24         7.9040    1.9850    0.4530 c         1 MOL      0.580088
     72 O13         8.5930    2.6600    1.1890 o         1 MOL     -0.595169
     73 H30         6.7120   -0.7670   -0.5890 hn        1 MOL      0.277560
     74 H31         9.2790    0.3950    0.1750 h1        1 MOL      0.165087
     75 H32         7.9470    0.0330    1.2810 h1        1 MOL      0.165087
     76 N7          6.8790    2.5210   -0.2340 n         1 MOL     -0.040024
     77 C25         6.5930    3.9590   -0.3530 c3        1 MOL     -0.050520
     78 C26         6.0880    4.7490    0.9260 c         1 MOL      0.456762
     79 O14         6.1490    5.9540    1.0630 o         1 MOL     -0.504730
     80 C27         7.7130    4.6180   -1.2630 c3        1 MOL      0.045325
     81 C28         7.9260    3.9110   -2.6310 c3        1 MOL     -0.097064
     82 C29         8.8090    4.7610   -3.5840 c         1 MOL      0.609258
     83 N8         10.0140    4.3860   -3.8200 n         1 MOL     -0.759313
     84 O15         8.3260    5.7830   -4.0110 o         1 MOL     -0.582237
     85 H33         6.2100    1.9160   -0.6760 hn        1 MOL      0.032232
     86 H34         5.7890    4.0630   -1.0820 h1        1 MOL      0.108651
     87 H35         8.6460    4.6490   -0.6880 hc        1 MOL     -0.001737
     88 H36         7.3280    5.6330   -1.3260 hc        1 MOL     -0.001737
     89 H37         7.0100    3.7240   -3.1920 hc        1 MOL      0.047045
     90 H38         8.4800    2.9920   -2.4330 hc        1 MOL      0.047045
     91 H39        10.4370    3.5630   -3.4150 hn        1 MOL      0.346404
     92 H40        10.6490    5.0700   -4.1990 hn        1 MOL      0.346404
     93 N9          5.5540    3.9510    1.8460 n         1 MOL     -0.273061
     94 C30         5.0530    4.3180    3.1660 c3        1 MOL     -0.125113
     95 C31         3.5390    4.0320    3.2960 c         1 MOL      0.687535
     96 O16         2.9030    4.5610    4.1970 o         1 MOL     -0.588242
     97 C32         5.8350    3.6220    4.3070 c3        1 MOL      0.205954
     98 C33         5.6270    2.1280    4.2970 c3        1 MOL     -0.207137
     99 C34         7.4000    3.8550    4.1330 c3        1 MOL     -0.207137
    100 H41         5.6500    2.9540    1.7530 hn        1 MOL      0.231749
    101 H42         5.0390    5.3920    3.3490 h1        1 MOL      0.090483
    102 H43         5.5410    4.0210    5.2740 hc        1 MOL     -0.018055
    103 H44         5.7210    1.6600    3.3160 hc        1 MOL      0.045073
    104 H45         6.3320    1.6610    4.9940 hc        1 MOL      0.045073
    105 H46         4.6190    1.8550    4.5950 hc        1 MOL      0.045073
    106 H47         7.6570    4.8880    4.3850 hc        1 MOL      0.045073
    107 H48         7.9040    3.3130    4.9270 hc        1 MOL      0.045073
    108 H49         7.6940    3.6220    3.1060 hc        1 MOL      0.045073
    109 N10         2.9220    3.3010    2.3260 n         1 MOL     -0.621818
    110 C35         1.5430    2.8170    2.3140 c3        1 MOL      0.402204
    111 C36         0.7720    3.0270    1.0130 c         1 MOL      0.496337
    112 O17         1.3440    3.3340   -0.0080 o         1 MOL     -0.521655
    113 C37         1.6650    1.3030    2.6170 c3        1 MOL     -0.263428
    114 C38         0.3710    0.5690    2.6040 c         1 MOL      0.536714
    115 N11         0.2930   -0.5480    2.0370 n         1 MOL     -0.557702
    116 O18        -0.6300    0.9670    3.2470 o         1 MOL     -0.581743
    117 H50         3.4840    3.0220    1.5340 hn        1 MOL      0.247354
    118 H51         0.9930    3.2930    3.1330 h1        1 MOL      0.011407
    119 H52         2.0230    1.3300    3.6520 hc        1 MOL      0.075328
    120 H53         2.4390    0.9040    1.9600 hc        1 MOL      0.075328
    121 H54         1.0220   -0.8040    1.3860 hn        1 MOL      0.302432
    122 H55        -0.5850   -1.0450    1.9310 hn        1 MOL      0.302432
    123 N12        -0.5690    2.8990    1.1030 n         1 MOL     -0.520279
    124 C39        -1.4740    2.8760   -0.0740 c3        1 MOL      0.094672
    125 C40        -2.9170    3.3840    0.4390 c         1 MOL      0.677197
    126 O19        -3.2740    3.2480    1.6320 o         1 MOL     -0.575024
    127 C41        -1.5420    1.5150   -0.7140 c3        1 MOL     -0.197546
    128 C42        -2.3160    1.5160   -2.0140 ca        1 MOL      0.050323
    129 C43        -3.7130    1.2790   -1.9690 ca        1 MOL     -0.161646
    130 C44        -1.6880    1.8430   -3.2200 ca        1 MOL     -0.161646
    131 C45        -4.5200    1.3580   -3.0910 ca        1 MOL     -0.231761
    132 C46        -2.4670    1.9460   -4.4060 ca        1 MOL     -0.231761
    133 C47        -3.8670    1.7120   -4.3050 ca        1 MOL      0.297097
    134 O20        -4.6080    1.7570   -5.4750 oh        1 MOL     -0.526108
    135 H56        -0.8890    2.5280    1.9800 hn        1 MOL      0.250472
    136 H57        -1.1190    3.6190   -0.7830 h1        1 MOL      0.080692
    137 H58        -1.8680    0.8190    0.0570 hc        1 MOL      0.096260
    138 H59        -0.5200    1.1920   -0.9160 hc        1 MOL      0.096260
    139 H60        -4.2600    1.0120   -1.0790 ha        1 MOL      0.163669
    140 H61        -0.6350    2.0640   -3.3730 ha        1 MOL      0.163669
    141 H62        -5.5820    1.1820   -3.0640 ha        1 MOL      0.148969
    142 H63        -2.0770    2.1610   -5.3890 ha        1 MOL      0.148969
    143 H64        -5.5360    1.5460   -5.3140 ho        1 MOL      0.371028
    144 N13        -3.6280    4.0480   -0.4540 n         1 MOL     -0.734325
    145 C48        -4.9490    4.6560   -0.2120 c3        1 MOL      0.411846
    146 C49        -5.9120    4.1240   -1.3380 c         1 MOL      0.525912
    147 O21        -5.9370    4.5790   -2.4870 o         1 MOL     -0.560328
    148 C50        -4.8990    6.2510   -0.1320 c3        1 MOL      0.073126
    149 C51        -6.1050    6.7120    0.7230 c3        1 MOL     -0.102508
    150 C52        -6.3140    8.2620    0.6590 c         1 MOL      0.612616
    151 O22        -5.5740    9.0980    1.2470 o         1 MOL     -0.676631
    152 O23        -7.2810    8.6640   -0.0720 o         1 MOL     -0.676631
    153 H65        -3.2210    4.0010   -1.3720 hn        1 MOL      0.297033
    154 H66        -5.2480    4.2770    0.7650 h1        1 MOL      0.001306
    155 H67        -5.0240    6.6870   -1.1200 hc        1 MOL     -0.014748
    156 H68        -3.9870    6.5350    0.3970 hc        1 MOL     -0.014748
    157 H69        -5.9370    6.4780    1.7740 hc        1 MOL      0.014342
    158 H70        -7.0200    6.2510    0.3530 hc        1 MOL      0.014342
    159 N14        -6.8600    3.2060   -1.1380 n         1 MOL     -0.434285
    160 C53        -7.0340    2.3680    0.0400 c3        1 MOL     -0.065893
    161 C54        -7.4610    3.1260    1.2460 c         1 MOL      0.362697
    162 O24        -8.3450    3.9550    1.1240 o         1 MOL     -0.499347
    163 C55        -8.1780    1.3500   -0.1990 c3        1 MOL      0.090700
    164 C56        -7.9040    0.3900   -1.3900 c3        1 MOL      0.044506
    165 C57        -9.0030   -0.6700   -1.7550 c         1 MOL      0.516233
    166 O25       -10.1580   -0.2940   -2.0210 o         1 MOL     -0.670038
    167 O26        -8.6140   -1.8480   -1.7180 o         1 MOL     -0.670038
    168 H71        -7.3710    2.9330   -1.9690 hn        1 MOL      0.295517
    169 H72        -6.1260    1.8400    0.3210 h1        1 MOL     -0.005575
    170 H73        -9.1230    1.8190   -0.4790 hc        1 MOL      0.007129
    171 H74        -8.3230    0.7280    0.6890 hc        1 MOL      0.007129
    172 H75        -6.9540   -0.1330   -1.3230 hc        1 MOL     -0.016367
    173 H76        -7.8980    1.0980   -2.2220 hc        1 MOL     -0.016367
    174 N15        -6.9330    2.7730    2.3630 n         1 MOL     -0.128250
    175 C58        -7.2090    3.2040    3.7100 c3        1 MOL     -0.569690
    176 H77        -6.7480    4.1760    3.8810 h1        1 MOL      0.190665
    177 H78        -8.2860    3.2830    3.8530 h1        1 MOL      0.190665
    178 H79        -6.8010    2.4790    4.4150 h1        1 MOL      0.190665
    179 H80        -6.2610    2.0140    2.3910 hn        1 MOL      0.237595
    180 Ca1        -7.6730   -3.8230   -0.4030 Ca        1 MOL      1.747713
    181 O27        -7.1320   -1.8760    1.0950 oh        1 MOL     -0.856509
    182 H81        -6.3630   -1.3300    0.9230 ho        1 MOL      0.409826
    183 H82        -7.6280   -1.4060    1.7710 ho        1 MOL      0.409826
    184 O28        -7.5320   -4.7100   -3.2180 oh        1 MOL     -0.856509
    185 H83        -8.0370   -5.4470   -3.5930 ho        1 MOL      0.409826
    186 H84        -7.2430   -4.2180   -3.9820 ho        1 MOL      0.409826
    187 O29        -8.1610   -6.4710   -0.7030 oh        1 MOL     -0.856509
    188 H85        -8.8710   -7.1050   -0.7190 ho        1 MOL      0.409826
    189 H86        -7.3990   -6.9480   -1.0440 ho        1 MOL      0.409826
    190 O30        -9.6080   -3.5570    1.5780 oh        1 MOL     -0.856509
    191 H87        -9.9600   -3.5660    2.4760 ho        1 MOL      0.409826
    192 H88       -10.3460   -3.2610    1.0370 ho        1 MOL      0.409826
    193 O31       -10.2650   -4.1630   -1.3030 oh        1 MOL     -0.856509
    194 H89       -10.9780   -4.6850   -1.6520 ho        1 MOL      0.409826
    195 H90       -10.2760   -3.3530   -1.8140 ho        1 MOL      0.409826
@<TRIPOS>BOND
     1    1    2 1   
     2    1    4 1   
     3    1    5 1   
     4    1    6 1   
     5    2    3 2   
     6    2    7 1   
     7    7    8 1   
     8    7   15 1   
     9    8    9 1   
    10    8   11 1   
    11    8   16 1   
    12    9   10 2   
    13    9   19 1   
    14   11   12 1   
    15   11   17 1   
    16   11   18 1   
    17   12   13 1   
    18   12   14 1   
    19   19   20 1   
    20   19   27 1   
    21   20   21 1   
    22   20   23 1   
    23   20   28 1   
    24   21   22 2   
    25   21   38 1   
    26   23   24 1   
    27   23   25 1   
    28   23   29 1   
    29   24   26 1   
    30   24   30 1   
    31   24   31 1   
    32   25   32 1   
    33   25   33 1   
    34   25   34 1   
    35   26   35 1   
    36   26   36 1   
    37   26   37 1   
    38   38   39 1   
    39   38   46 1   
    40   39   40 1   
    41   39   42 1   
    42   39   47 1   
    43   40   41 2   
    44   40   50 1   
    45   42   43 1   
    46   42   48 1   
    47   42   49 1   
    48   43   44 1   
    49   43   45 1   
    50   50   51 1   
    51   50   54 1   
    52   51   52 1   
    53   51   55 1   
    54   51   56 1   
    55   52   53 2   
    56   52   57 1   
    57   57   58 1   
    58   57   65 1   
    59   58   59 1   
    60   58   61 1   
    61   58   66 1   
    62   59   60 2   
    63   59   69 1   
    64   61   62 1   
    65   61   67 1   
    66   61   68 1   
    67   62   63 1   
    68   62   64 1   
    69   69   70 1   
    70   69   73 1   
    71   70   71 1   
    72   70   74 1   
    73   70   75 1   
    74   71   72 2   
    75   71   76 1   
    76   76   77 1   
    77   76   85 1   
    78   77   78 1   
    79   77   80 1   
    80   77   86 1   
    81   78   79 2   
    82   78   93 1   
    83   80   81 1   
    84   80   87 1   
    85   80   88 1   
    86   81   82 1   
    87   81   89 1   
    88   81   90 1   
    89   82   83 1   
    90   82   84 2   
    91   83   91 1   
    92   83   92 1   
    93   93   94 1   
    94   93  100 1   
    95   94   95 1   
    96   94   97 1   
    97   94  101 1   
    98   95   96 2   
    99   95  109 1   
   100   97   98 1   
   101   97   99 1   
   102   97  102 1   
   103   98  103 1   
   104   98  104 1   
   105   98  105 1   
   106   99  106 1   
   107   99  107 1   
   108   99  108 1   
   109  109  110 1   
   110  109  117 1   
   111  110  111 1   
   112  110  113 1   
   113  110  118 1   
   114  111  112 2   
   115  111  123 1   
   116  113  114 1   
   117  113  119 1   
   118  113  120 1   
   119  114  115 1   
   120  114  116 2   
   121  115  121 1   
   122  115  122 1   
   123  123  124 1   
   124  123  135 1   
   125  124  125 1   
   126  124  127 1   
   127  124  136 1   
   128  125  126 2   
   129  125  144 1   
   130  127  128 1   
   131  127  137 1   
   132  127  138 1   
   133  128  129 ar  
   134  128  130 ar  
   135  129  131 ar  
   136  129  139 1   
   137  130  132 ar  
   138  130  140 1   
   139  131  133 ar  
   140  131  141 1   
   141  132  133 ar  
   142  132  142 1   
   143  133  134 1   
   144  134  143 1   
   145  144  145 1   
   146  144  153 1   
   147  145  146 1   
   148  145  148 1   
   149  145  154 1   
   150  146  147 2   
   151  146  159 1   
   152  148  149 1   
   153  148  155 1   
   154  148  156 1   
   155  149  150 1   
   156  149  157 1   
   157  149  158 1   
   158  150  151 1   
   159  150  152 1   
   160  159  160 1   
   161  159  168 1   
   162  160  161 1   
   163  160  163 1   
   164  160  169 1   
   165  161  162 2   
   166  161  174 1   
   167  163  164 1   
   168  163  170 1   
   169  163  171 1   
   170  164  165 1   
   171  164  172 1   
   172  164  173 1   
   173  165  166 1   
   174  165  167 1   
   175  174  175 1   
   176  174  179 1   
   177  175  176 1   
   178  175  177 1   
   179  175  178 1   
   180  181  182 1   
   181  181  183 1   
   182  184  185 1   
   183  184  186 1   
   184  187  188 1   
   185  187  189 1   
   186  190  191 1   
   187  190  192 1   
   188  193  194 1   
   189  193  195 1   
@<TRIPOS>SUBSTRUCTURE
     1 MOL         1 TEMP              0 ****  ****    0 ROOT
