@<TRIPOS>MOLECULE
MOL
  192   187     1     0     0
SMALL
resp


@<TRIPOS>ATOM
      1 C1          9.6380    0.8020    1.5880 c3        1 MOL     -0.640919
      2 C2          8.4140    0.5340    0.7450 c         1 MOL      0.797023
      3 O1          7.2900    0.8290    1.1220 o         1 MOL     -0.674784
      4 H1          9.7090    1.8690    1.7970 hc        1 MOL      0.159671
      5 H2          9.5610    0.2540    2.5270 hc        1 MOL      0.159671
      6 H3         10.5290    0.4770    1.0500 hc        1 MOL      0.159671
      7 N1          8.6100   -0.1820   -0.3760 n         1 MOL     -0.445560
      8 C3          7.5840   -0.4100   -1.3500 c3        1 MOL     -0.030280
      9 C4          6.9500   -1.7680   -1.2640 c         1 MOL      0.441620
     10 O2          6.7840   -2.4800   -2.2990 o         1 MOL     -0.390739
     11 C5          8.1420   -0.0420   -2.7230 c3        1 MOL     -0.159690
     12 C6          9.1550   -1.0080   -3.3110 c         1 MOL      0.642283
     13 O3          9.8320   -1.7950   -2.6200 o         1 MOL     -0.611834
     14 O4          9.0870   -1.1330   -4.5470 o         1 MOL     -0.611834
     15 H4          9.5490   -0.4900   -0.5920 hn        1 MOL      0.213145
     16 H5          6.8140    0.3260   -1.0930 h1        1 MOL      0.106356
     17 H6          8.6350    0.9350   -2.7050 hc        1 MOL      0.063296
     18 H7          7.3140   -0.0070   -3.4300 hc        1 MOL      0.063296
     19 N2          6.6870   -2.2370   -0.0220 n         1 MOL     -0.399326
     20 C7          6.2150   -3.6110    0.3510 c3        1 MOL      0.044486
     21 C8          4.7150   -3.9270    0.0020 c         1 MOL      0.412014
     22 O5          4.5990   -4.9720   -0.6030 o         1 MOL     -0.509097
     23 C9          6.5440   -3.8130    1.8300 c3        1 MOL      0.125658
     24 C10         8.0460   -3.8130    2.2910 c3        1 MOL     -0.123937
     25 C11         8.2790   -4.0430    3.8470 c3        1 MOL      0.187301
     26 C12         9.7470   -4.1880    4.3870 c3        1 MOL      0.058035
     27 N3          9.8780   -3.8410    5.8180 n4        1 MOL     -0.151578
     28 H8          6.8520   -1.5600    0.7100 hn        1 MOL      0.279488
     29 H9          6.8770   -4.2840   -0.1980 h1        1 MOL      0.110801
     30 H10         6.1170   -4.7470    2.1990 hc        1 MOL     -0.021048
     31 H11         6.0970   -3.0080    2.4260 hc        1 MOL     -0.021048
     32 H12         8.4090   -2.8200    2.0470 hc        1 MOL      0.018734
     33 H13         8.5400   -4.5780    1.6890 hc        1 MOL      0.018734
     34 H14         7.6010   -4.7790    4.2830 hc        1 MOL     -0.042776
     35 H15         8.0440   -3.0800    4.2830 hc        1 MOL     -0.042776
     36 H16        10.3550   -3.5520    3.7530 hx        1 MOL      0.049788
     37 H17        10.1090   -5.2050    4.2550 hx        1 MOL      0.049788
     38 H18        10.8180   -3.7960    6.2010 hn        1 MOL      0.206854
     39 H19         9.5600   -2.8830    5.9020 hn        1 MOL      0.206854
     40 H20         9.2890   -4.3630    6.4340 hn        1 MOL      0.206854
     41 N4          3.7560   -2.9940    0.1340 n         1 MOL     -0.341489
     42 C13         3.7900   -1.7760    0.8910 c3        1 MOL      0.081491
     43 C14         3.9040   -0.4960   -0.0180 c         1 MOL      0.159135
     44 O6          4.0770   -0.6110   -1.2310 o         1 MOL     -0.390131
     45 C15         2.5900   -1.7490    1.9240 c3        1 MOL     -0.298399
     46 C16         1.2450   -1.8870    1.1890 c         1 MOL      0.811243
     47 O7          1.0600   -1.2460    0.1330 o         1 MOL     -0.703575
     48 O8          0.3890   -2.6600    1.6360 o         1 MOL     -0.703575
     49 H21         3.0030   -3.2020   -0.5060 hn        1 MOL      0.343010
     50 H22         4.6950   -1.6880    1.4890 h1        1 MOL      0.089624
     51 H23         2.7160   -0.7250    2.2770 hc        1 MOL      0.052485
     52 H24         2.6970   -2.6160    2.5790 hc        1 MOL      0.052485
     53 N5          3.9730    0.7150    0.5830 n         1 MOL     -0.195784
     54 C17         4.2380    2.0770   -0.0410 c3        1 MOL     -0.094788
     55 C18         2.9710    2.6610   -0.7800 c         1 MOL      0.701494
     56 O9          1.8180    2.1750   -0.5170 o         1 MOL     -0.763770
     57 H25         4.0420    0.6710    1.5910 hn        1 MOL      0.260510
     58 H26         5.0150    1.8870   -0.7780 h1        1 MOL      0.089535
     59 H27         4.5720    2.7560    0.7520 h1        1 MOL      0.089535
     60 N6          3.0830    3.7770   -1.4900 n         1 MOL     -0.549390
     61 C19         1.9900    4.5510   -2.1440 c3        1 MOL      0.457729
     62 C20         2.2570    6.0700   -2.1390 c         1 MOL      0.311240
     63 O10         3.4220    6.4810   -2.1270 o         1 MOL     -0.516209
     64 C21         1.7870    4.1350   -3.6220 c3        1 MOL     -0.257874
     65 C22         1.4870    2.6180   -3.6440 c         1 MOL      0.661345
     66 O11         2.4090    1.8580   -4.0540 o         1 MOL     -0.664347
     67 O12         0.4200    2.1420   -3.1820 o         1 MOL     -0.664347
     68 H28         4.0280    4.1260   -1.5840 hn        1 MOL      0.281012
     69 H29         1.0810    4.3150   -1.5840 h1        1 MOL      0.013465
     70 H30         2.5880    4.4120   -4.2980 hc        1 MOL      0.067292
     71 H31         0.8840    4.6000   -4.0070 hc        1 MOL      0.067292
     72 N7          1.3150    7.0410   -2.2530 n         1 MOL     -0.307631
     73 C23        -0.1290    6.8840   -2.3200 c3        1 MOL     -0.250953
     74 C24        -0.7720    6.2070   -1.0860 c         1 MOL      0.521306
     75 O13        -0.1280    6.0680   -0.0040 o         1 MOL     -0.424794
     76 H32         1.7610    7.9520   -2.2170 hn        1 MOL      0.299530
     77 H33        -0.3930    6.2950   -3.2000 h1        1 MOL      0.119175
     78 H34        -0.4610    7.9260   -2.3790 h1        1 MOL      0.119175
     79 N8         -2.0020    5.7420   -1.2680 n         1 MOL     -0.478316
     80 C25        -2.7460    4.9410   -0.2860 c3        1 MOL     -0.047383
     81 C26        -1.8730    3.8200    0.3300 c         1 MOL      0.794513
     82 O14        -1.1860    3.0590   -0.3890 o         1 MOL     -0.629824
     83 C27        -4.0520    4.3640   -0.8290 c3        1 MOL      0.335859
     84 C28        -4.9720    3.7720    0.3250 c3        1 MOL     -0.401645
     85 O15        -3.8560    3.4760   -1.8820 oh        1 MOL     -0.593394
     86 H35        -2.5330    5.9560   -2.0910 hn        1 MOL      0.311325
     87 H36        -3.0480    5.6050    0.5240 h1        1 MOL      0.051169
     88 H37        -4.6590    5.1930   -1.2040 h1        1 MOL     -0.001584
     89 H38        -4.6990    3.2780   -2.3040 ho        1 MOL      0.407783
     90 H39        -4.5200    2.8490    0.6910 hc        1 MOL      0.103858
     91 H40        -5.2490    4.5360    1.0480 hc        1 MOL      0.103858
     92 H41        -5.9440    3.5110   -0.1050 hc        1 MOL      0.103858
     93 N9         -1.9550    3.7270    1.6520 n         1 MOL     -0.623913
     94 C29        -1.1350    2.8020    2.5250 c3        1 MOL     -0.056419
     95 C30        -1.3970    1.3060    2.2220 c         1 MOL      0.700722
     96 O16        -0.7710    0.7340    1.3200 o         1 MOL     -0.565847
     97 C31         0.3850    3.1540    2.6080 c3        1 MOL      0.032818
     98 C32         0.6710    4.6890    2.9930 c3        1 MOL      0.173413
     99 C33         1.1450    2.2960    3.6170 c3        1 MOL     -0.385851
    100 C34         2.1370    5.1180    3.1710 c3        1 MOL     -0.356004
    101 H42        -2.3320    4.5610    2.0740 hn        1 MOL      0.303216
    102 H43        -1.5170    2.9020    3.5380 h1        1 MOL      0.069762
    103 H44         0.8480    2.9720    1.6380 hc        1 MOL      0.137346
    104 H45         0.2230    4.7670    3.9860 hc        1 MOL     -0.044927
    105 H46         0.2260    5.3570    2.2540 hc        1 MOL     -0.044927
    106 H47         0.6150    2.4030    4.5610 hc        1 MOL      0.097933
    107 H48         1.0540    1.2530    3.3230 hc        1 MOL      0.097933
    108 H49         2.1690    2.5920    3.8080 hc        1 MOL      0.097933
    109 H50         2.6150    4.8340    2.2240 hc        1 MOL      0.095128
    110 H51         2.1120    6.1970    3.3180 hc        1 MOL      0.095128
    111 H52         2.4680    4.6240    4.0860 hc        1 MOL      0.095128
    112 N10        -2.3210    0.8150    2.9980 n         1 MOL     -0.509981
    113 C35        -2.7370   -0.6110    2.9980 c3        1 MOL      0.027103
    114 C36        -4.2840   -0.8310    3.0300 c         1 MOL      0.341371
    115 O17        -4.7180   -1.9660    2.8960 o         1 MOL     -0.470971
    116 C37        -2.0960   -1.2150    4.1950 c3        1 MOL      0.422124
    117 C38        -2.4040   -0.4580    5.5160 c3        1 MOL     -0.268232
    118 O18        -0.6910   -1.3440    4.1710 oh        1 MOL     -0.616009
    119 H53        -2.9470    1.4220    3.5090 hn        1 MOL      0.277095
    120 H54        -2.4040   -1.0090    2.0450 h1        1 MOL      0.091413
    121 H55        -2.4480   -2.2360    4.3100 h1        1 MOL     -0.014259
    122 H56        -0.4620   -1.7410    3.3210 ho        1 MOL      0.385476
    123 H57        -3.4400   -0.1430    5.6220 hc        1 MOL      0.059538
    124 H58        -2.0580   -1.1000    6.3160 hc        1 MOL      0.059538
    125 H59        -1.8220    0.4730    5.5540 hc        1 MOL      0.059538
    126 N11        -5.1280    0.2240    3.2530 n         1 MOL     -0.259720
    127 C39        -6.5700    0.1450    2.8720 c3        1 MOL     -0.132055
    128 C40        -6.8000   -0.2490    1.4170 c         1 MOL      0.594113
    129 O19        -7.0480    0.5760    0.5160 o         1 MOL     -0.520499
    130 C41        -7.3350    1.3880    3.1830 c3        1 MOL      0.418896
    131 C42        -7.5610    1.6080    4.6730 c3        1 MOL     -0.301298
    132 O20        -6.5600    2.5230    2.7160 oh        1 MOL     -0.630822
    133 H60        -4.7820    1.1090    3.5890 hn        1 MOL      0.297585
    134 H61        -7.0180   -0.6320    3.5080 h1        1 MOL      0.070943
    135 H62        -8.2920    1.3900    2.6590 h1        1 MOL      0.001148
    136 H63        -7.1710    2.9700    2.1210 ho        1 MOL      0.383627
    137 H64        -6.6760    1.4030    5.2850 hc        1 MOL      0.071274
    138 H65        -7.9000    2.6310    4.8390 hc        1 MOL      0.071274
    139 H66        -8.3130    0.8540    4.8830 hc        1 MOL      0.071274
    140 N12        -6.8020   -1.5890    1.2600 n         1 MOL     -0.716821
    141 C43        -6.6170   -2.3010   -0.0060 c3        1 MOL      0.441563
    142 C44        -5.1920   -2.0940   -0.6110 c         1 MOL      0.339930
    143 O21        -4.4520   -1.1360   -0.3420 o         1 MOL     -0.422205
    144 C45        -7.7470   -2.0820   -1.0430 c3        1 MOL     -0.696719
    145 C46        -9.1900   -2.3750   -0.4840 c3        1 MOL      0.081811
    146 C47       -10.3120   -2.3820   -1.5070 c3        1 MOL     -0.070110
    147 C48       -11.7230   -2.4100   -0.8450 c3        1 MOL     -0.110637
    148 N13       -12.0070   -3.6930   -0.2020 n4        1 MOL     -0.203038
    149 H67        -6.5960   -2.0950    2.1120 hn        1 MOL      0.363236
    150 H68        -6.6580   -3.3510    0.2920 h1        1 MOL      0.027396
    151 H69        -7.7400   -2.7770   -1.8830 hc        1 MOL      0.218289
    152 H70        -7.7520   -1.0350   -1.3280 hc        1 MOL      0.218289
    153 H71        -9.2870   -1.5910    0.2710 hc        1 MOL      0.031229
    154 H72        -9.1600   -3.3160    0.0820 hc        1 MOL      0.031229
    155 H73       -10.1620   -3.0630   -2.3430 hc        1 MOL      0.080350
    156 H74       -10.2880   -1.4580   -2.0820 hc        1 MOL      0.080350
    157 H75       -12.4730   -2.2160   -1.6050 hx        1 MOL      0.119055
    158 H76       -11.8440   -1.5780   -0.1510 hx        1 MOL      0.119055
    159 H77       -11.9230   -4.4730   -0.8470 hn        1 MOL      0.231432
    160 H78       -11.4380   -3.8980    0.6070 hn        1 MOL      0.231432
    161 H79       -12.9860   -3.7650    0.0330 hn        1 MOL      0.231432
    162 N14        -4.7900   -3.1120   -1.3480 n         1 MOL     -0.413141
    163 C49        -3.5150   -3.0340   -2.0910 c3        1 MOL      0.144621
    164 C50        -2.2920   -2.6800   -1.1740 c         1 MOL      0.347969
    165 O22        -1.5870   -1.7160   -1.4540 o         1 MOL     -0.583208
    166 C51        -3.3370   -4.3330   -2.8520 c3        1 MOL     -0.002439
    167 C52        -4.3910   -4.2820   -4.0520 c3        1 MOL     -0.355967
    168 C53        -4.5430   -5.6400   -4.7460 c         1 MOL      0.741645
    169 O23        -4.6370   -6.6660   -4.0730 o         1 MOL     -0.651155
    170 O24        -4.4770   -5.6940   -5.9650 o         1 MOL     -0.651155
    171 H80        -5.4130   -3.8850   -1.5420 hn        1 MOL      0.266532
    172 H81        -3.6110   -2.1760   -2.7630 h1        1 MOL      0.104304
    173 H82        -3.5160   -5.2230   -2.2380 hc        1 MOL      0.067789
    174 H83        -2.3140   -4.4060   -3.2080 hc        1 MOL      0.067789
    175 H84        -3.9460   -3.6870   -4.8450 hc        1 MOL      0.068582
    176 H85        -5.3430   -3.8120   -3.7830 hc        1 MOL      0.068582
    177 N15        -1.9690   -3.3450   -0.0600 n         1 MOL     -0.146253
    178 C54        -2.3870   -4.6040    0.4640 c3        1 MOL     -0.077483
    179 H86        -2.8820   -5.1760   -0.3200 h1        1 MOL      0.040910
    180 H87        -1.5180   -5.1560    0.8230 h1        1 MOL      0.040910
    181 H88        -3.0810   -4.4420    1.2890 h1        1 MOL      0.040910
    182 H89        -1.2000   -2.9100    0.4280 hn        1 MOL      0.235047
    183 Ca1        -0.2810    0.5680   -1.3570 Ca        1 MOL      1.779896
    184 O25        -1.0920   -0.2720   -3.9990 oh        1 MOL     -0.896180
    185 H90        -0.2780   -0.0180   -4.4460 ho        1 MOL      0.423821
    186 H91        -1.5810   -0.7570   -4.6550 ho        1 MOL      0.423821
    187 O26         2.0380   -0.4130   -2.8470 oh        1 MOL     -0.896180
    188 H92         2.7680   -0.5700   -2.2480 ho        1 MOL      0.423821
    189 H93         2.2590    0.4090   -3.2830 ho        1 MOL      0.423821
    190 O27        -2.8400    0.9680   -1.5190 oh        1 MOL     -0.896180
    191 H94        -3.2740    1.8130   -1.6500 ho        1 MOL      0.423821
    192 H95        -3.5050    0.4270   -1.0790 ho        1 MOL      0.423821
@<TRIPOS>BOND
     1    1    2 1   
     2    1    4 1   
     3    1    5 1   
     4    1    6 1   
     5    2    3 2   
     6    2    7 1   
     7    7    8 1   
     8    7   15 1   
     9    8    9 1   
    10    8   11 1   
    11    8   16 1   
    12    9   10 2   
    13    9   19 1   
    14   11   12 1   
    15   11   17 1   
    16   11   18 1   
    17   12   13 1   
    18   12   14 1   
    19   19   20 1   
    20   19   28 1   
    21   20   21 1   
    22   20   23 1   
    23   20   29 1   
    24   21   22 2   
    25   21   41 1   
    26   23   24 1   
    27   23   30 1   
    28   23   31 1   
    29   24   25 1   
    30   24   32 1   
    31   24   33 1   
    32   25   26 1   
    33   25   34 1   
    34   25   35 1   
    35   26   27 1   
    36   26   36 1   
    37   26   37 1   
    38   27   38 1   
    39   27   39 1   
    40   27   40 1   
    41   41   42 1   
    42   41   49 1   
    43   42   43 1   
    44   42   45 1   
    45   42   50 1   
    46   43   44 2   
    47   43   53 1   
    48   45   46 1   
    49   45   51 1   
    50   45   52 1   
    51   46   47 1   
    52   46   48 1   
    53   53   54 1   
    54   53   57 1   
    55   54   55 1   
    56   54   58 1   
    57   54   59 1   
    58   55   56 2   
    59   55   60 1   
    60   60   61 1   
    61   60   68 1   
    62   61   62 1   
    63   61   64 1   
    64   61   69 1   
    65   62   63 2   
    66   62   72 1   
    67   64   65 1   
    68   64   70 1   
    69   64   71 1   
    70   65   66 1   
    71   65   67 1   
    72   72   73 1   
    73   72   76 1   
    74   73   74 1   
    75   73   77 1   
    76   73   78 1   
    77   74   75 2   
    78   74   79 1   
    79   79   80 1   
    80   79   86 1   
    81   80   81 1   
    82   80   83 1   
    83   80   87 1   
    84   81   82 2   
    85   81   93 1   
    86   83   84 1   
    87   83   85 1   
    88   83   88 1   
    89   84   90 1   
    90   84   91 1   
    91   84   92 1   
    92   85   89 1   
    93   93   94 1   
    94   93  101 1   
    95   94   95 1   
    96   94   97 1   
    97   94  102 1   
    98   95   96 2   
    99   95  112 1   
   100   97   98 1   
   101   97   99 1   
   102   97  103 1   
   103   98  100 1   
   104   98  104 1   
   105   98  105 1   
   106   99  106 1   
   107   99  107 1   
   108   99  108 1   
   109  100  109 1   
   110  100  110 1   
   111  100  111 1   
   112  112  113 1   
   113  112  119 1   
   114  113  114 1   
   115  113  116 1   
   116  113  120 1   
   117  114  115 2   
   118  114  126 1   
   119  116  117 1   
   120  116  118 1   
   121  116  121 1   
   122  117  123 1   
   123  117  124 1   
   124  117  125 1   
   125  118  122 1   
   126  126  127 1   
   127  126  133 1   
   128  127  128 1   
   129  127  130 1   
   130  127  134 1   
   131  128  129 2   
   132  128  140 1   
   133  130  131 1   
   134  130  132 1   
   135  130  135 1   
   136  131  137 1   
   137  131  138 1   
   138  131  139 1   
   139  132  136 1   
   140  140  141 1   
   141  140  149 1   
   142  141  142 1   
   143  141  144 1   
   144  141  150 1   
   145  142  143 2   
   146  142  162 1   
   147  144  145 1   
   148  144  151 1   
   149  144  152 1   
   150  145  146 1   
   151  145  153 1   
   152  145  154 1   
   153  146  147 1   
   154  146  155 1   
   155  146  156 1   
   156  147  148 1   
   157  147  157 1   
   158  147  158 1   
   159  148  159 1   
   160  148  160 1   
   161  148  161 1   
   162  162  163 1   
   163  162  171 1   
   164  163  164 1   
   165  163  166 1   
   166  163  172 1   
   167  164  165 2   
   168  164  177 1   
   169  166  167 1   
   170  166  173 1   
   171  166  174 1   
   172  167  168 1   
   173  167  175 1   
   174  167  176 1   
   175  168  169 1   
   176  168  170 1   
   177  177  178 1   
   178  177  182 1   
   179  178  179 1   
   180  178  180 1   
   181  178  181 1   
   182  184  185 1   
   183  184  186 1   
   184  187  188 1   
   185  187  189 1   
   186  190  191 1   
   187  190  192 1   
@<TRIPOS>SUBSTRUCTURE
     1 MOL         1 TEMP              0 ****  ****    0 ROOT
