@<TRIPOS>MOLECULE
MOL
  189   185     1     0     0
SMALL
resp


@<TRIPOS>ATOM
      1 C1          4.0410    4.3530   -3.1580 c3        1 MOL     -0.291199
      2 C2          4.9340    3.5050   -2.2680 c         1 MOL      0.682998
      3 O1          4.4200    3.0490   -1.2210 o         1 MOL     -0.584614
      4 H1          3.0270    3.9530   -3.1410 hc        1 MOL      0.074936
      5 H2          4.0320    5.3800   -2.7930 hc        1 MOL      0.074936
      6 H3          4.4210    4.3330   -4.1800 hc        1 MOL      0.074936
      7 N1          6.0870    3.1010   -2.7160 n         1 MOL     -0.636520
      8 C3          6.9120    1.9780   -2.1810 c3        1 MOL      0.257256
      9 C4          5.9780    0.8020   -1.8480 c         1 MOL      0.009192
     10 O2          5.7060    0.4280   -0.7210 o         1 MOL      0.144430
     11 C5          7.8490    2.3730   -1.0490 c3        1 MOL     -0.109263
     12 C6          7.3630    3.5420   -0.2100 c         1 MOL      0.760789
     13 O3          6.6310    3.3090    0.7480 o         1 MOL     -0.723823
     14 O4          7.8500    4.6590   -0.3990 o         1 MOL     -0.723823
     15 H4          6.4490    3.4960   -3.5680 hn        1 MOL      0.336215
     16 H5          7.4920    1.6190   -3.0280 h1        1 MOL      0.016896
     17 H6          8.7850    2.7230   -1.5000 hc        1 MOL     -0.018919
     18 H7          8.0760    1.5060   -0.4300 hc        1 MOL     -0.018919
     19 N2          5.4150    0.2420   -2.9520 n         1 MOL     -0.292986
     20 C7          4.8130   -1.1130   -3.1250 c3        1 MOL     -0.040288
     21 C8          5.6290   -2.3060   -2.5540 c         1 MOL      0.513271
     22 O5          6.0900   -3.1250   -3.3560 o         1 MOL     -0.567840
     23 C9          3.3430   -1.0340   -2.5000 c3        1 MOL      0.331754
     24 C10         2.7040   -2.4120   -2.7520 c3        1 MOL      0.234327
     25 C11         2.5800    0.1280   -3.1700 c3        1 MOL     -0.293800
     26 C12         2.5130   -2.8910   -4.2300 c3        1 MOL     -0.312799
     27 H8          5.5810    0.8140   -3.7650 hn        1 MOL      0.243626
     28 H9          4.7610   -1.1710   -4.2160 h1        1 MOL      0.037370
     29 H10         3.3300   -0.8830   -1.4240 hc        1 MOL     -0.330268
     30 H11         1.7030   -2.4090   -2.3210 hc        1 MOL     -0.028841
     31 H12         3.2760   -3.2230   -2.3010 hc        1 MOL     -0.028841
     32 H13         2.7250    0.1870   -4.2430 hc        1 MOL      0.061597
     33 H14         1.5240    0.1390   -2.8820 hc        1 MOL      0.061597
     34 H15         2.9460    1.0430   -2.6950 hc        1 MOL      0.061597
     35 H16         1.8920   -2.2010   -4.7950 hc        1 MOL      0.052832
     36 H17         3.4710   -3.0980   -4.7240 hc        1 MOL      0.052832
     37 H18         2.0210   -3.8580   -4.2400 hc        1 MOL      0.052832
     38 N3          5.7640   -2.4060   -1.1710 n         1 MOL     -0.250029
     39 C13         6.6800   -3.3550   -0.4950 c3        1 MOL      0.502639
     40 C14         5.9140   -4.6570   -0.0740 c         1 MOL      0.442921
     41 O6          6.5280   -5.7260   -0.1300 o         1 MOL     -0.524383
     42 C15         7.3770   -2.5980    0.6520 c3        1 MOL     -0.143409
     43 C16         8.4100   -3.3160    1.4730 c         1 MOL      0.709442
     44 O7          8.7240   -4.4730    1.2470 o         1 MOL     -0.744640
     45 O8          8.9990   -2.6490    2.3680 o         1 MOL     -0.744640
     46 H19         5.4930   -1.5900   -0.6390 hn        1 MOL     -0.148744
     47 H20         7.4060   -3.6990   -1.2360 h1        1 MOL     -0.082012
     48 H21         6.6200   -2.2680    1.3710 hc        1 MOL      0.004965
     49 H22         7.7630   -1.6480    0.2780 hc        1 MOL      0.004965
     50 N4          4.6450   -4.8380    0.3130 n         1 MOL     -0.611263
     51 C17         3.7740   -3.8530    0.9130 c3        1 MOL      0.361556
     52 C18         4.0730   -3.6110    2.4610 c         1 MOL      0.321901
     53 O9          4.8990   -4.3240    3.0280 o         1 MOL     -0.467884
     54 H23         4.3690   -5.7930    0.4810 hn        1 MOL      0.324738
     55 H24         2.7020   -4.0570    0.8150 h1        1 MOL     -0.035920
     56 H25         4.0240   -2.8510    0.5690 h1        1 MOL     -0.035920
     57 N5          3.4410   -2.6640    3.1500 n         1 MOL     -0.265044
     58 C19         2.2560   -1.9870    2.6650 c3        1 MOL      0.092595
     59 C20         2.3830   -1.1460    1.3920 c         1 MOL     -0.012708
     60 O10         3.4730   -0.6210    1.0800 o         1 MOL     -0.364824
     61 C21         1.9080   -0.9650    3.8280 c3        1 MOL     -0.172194
     62 C22         3.1110    0.0140    4.0530 c         1 MOL      0.678058
     63 O11         3.1880    1.1350    3.4160 o         1 MOL     -0.661734
     64 O12         3.9300   -0.1560    5.0150 o         1 MOL     -0.661734
     65 H26         3.5430   -2.5790    4.1480 hn        1 MOL      0.246656
     66 H27         1.3780   -2.6140    2.5710 h1        1 MOL      0.004133
     67 H28         1.5760   -1.4220    4.7580 hc        1 MOL      0.051259
     68 H29         1.0820   -0.3320    3.4880 hc        1 MOL      0.051259
     69 N6          1.3470   -0.7770    0.6230 n         1 MOL      0.046175
     70 C23        -0.1210   -1.0050    0.7310 c3        1 MOL     -0.195982
     71 C24        -0.3920   -2.4110    0.3230 c         1 MOL      0.746233
     72 O13         0.3860   -3.0740   -0.3340 o         1 MOL     -0.546429
     73 H30         1.7140   -0.1940   -0.1120 hn        1 MOL      0.266146
     74 H31        -0.6300   -0.3220    0.0690 h1        1 MOL      0.085523
     75 H32        -0.3240   -0.7800    1.7800 h1        1 MOL      0.085523
     76 N7         -1.4940   -2.9840    0.7860 n         1 MOL     -0.442957
     77 C25        -2.0900   -4.2080    0.1620 c3        1 MOL     -0.090679
     78 C26        -2.8360   -4.0520   -1.1630 c         1 MOL      0.337881
     79 O14        -2.9320   -5.0930   -1.9400 o         1 MOL     -0.521762
     80 C27        -2.9810   -4.9340    1.2170 c3        1 MOL     -0.052216
     81 C28        -4.0650   -4.1550    2.0180 c3        1 MOL     -0.292998
     82 C29        -5.2870   -3.7690    1.2170 c         1 MOL      0.496966
     83 N8         -6.1450   -4.7700    0.9660 n         1 MOL     -0.564770
     84 O15        -5.4250   -2.7330    0.7220 o         1 MOL     -0.399422
     85 H33        -2.0710   -2.4290    1.4060 hn        1 MOL      0.254879
     86 H34        -1.2330   -4.8360   -0.0450 h1        1 MOL      0.157510
     87 H35        -2.2810   -5.2930    1.9780 hc        1 MOL      0.054510
     88 H36        -3.5560   -5.7340    0.7590 hc        1 MOL      0.054510
     89 H37        -3.6260   -3.1880    2.2310 hc        1 MOL      0.114248
     90 H38        -4.3240   -4.7730    2.8750 hc        1 MOL      0.114248
     91 H39        -6.1420   -5.5780    1.5730 hn        1 MOL      0.279617
     92 H40        -7.0670   -4.6390    0.5660 hn        1 MOL      0.279617
     93 N9         -3.2730   -2.8660   -1.5490 n         1 MOL      0.018410
     94 C30        -3.7500   -2.4310   -2.9100 c3        1 MOL     -0.406381
     95 C31        -5.1450   -1.8130   -3.0700 c         1 MOL      0.629623
     96 O16        -5.6680   -1.6810   -4.1820 o         1 MOL     -0.565906
     97 C32        -2.6980   -1.5740   -3.6350 c3        1 MOL      0.190364
     98 C33        -1.4520   -2.3650   -3.9630 c3        1 MOL     -0.295312
     99 C34        -2.3220   -0.3420   -2.8480 c3        1 MOL     -0.295312
    100 H41        -3.0550   -2.1280   -0.8900 hn        1 MOL      0.136711
    101 H42        -3.8670   -3.3590   -3.4640 h1        1 MOL      0.188619
    102 H43        -3.0160   -1.2470   -4.6310 hc        1 MOL      0.049255
    103 H44        -1.0460   -2.7620   -3.0340 hc        1 MOL      0.076991
    104 H45        -1.6640   -3.2080   -4.6250 hc        1 MOL      0.076991
    105 H46        -0.7510   -1.6320   -4.3580 hc        1 MOL      0.076991
    106 H47        -2.9290    0.5030   -3.1600 hc        1 MOL      0.076991
    107 H48        -2.1040   -0.5520   -1.7990 hc        1 MOL      0.076991
    108 H49        -1.3840    0.0640   -3.2450 hc        1 MOL      0.076991
    109 N10        -5.8020   -1.3960   -1.9400 n         1 MOL     -0.422819
    110 C35        -7.2650   -0.9690   -1.8790 c3        1 MOL      0.101598
    111 C36        -7.3250    0.4900   -1.3220 c         1 MOL      0.557066
    112 O17        -8.3380    1.1440   -1.4530 o         1 MOL     -0.580470
    113 C37        -8.2050   -1.9800   -1.1230 c3        1 MOL     -0.137394
    114 C38        -8.3090   -3.3300   -1.7810 c         1 MOL      0.504880
    115 N11        -8.4490   -3.5140   -3.1150 n         1 MOL     -0.699073
    116 O18        -7.9800   -4.3110   -1.1130 o         1 MOL     -0.518076
    117 H50        -5.3240   -1.5540   -1.0590 hn        1 MOL      0.317758
    118 H51        -7.6420   -0.9090   -2.8980 h1        1 MOL      0.046023
    119 H52        -9.2120   -1.5980   -1.0210 hc        1 MOL      0.049069
    120 H53        -7.8800   -2.1630   -0.0950 hc        1 MOL      0.049069
    121 H54        -8.7890   -2.7320   -3.6450 hn        1 MOL      0.352969
    122 H55        -8.3840   -4.4620   -3.4520 hn        1 MOL      0.352969
    123 N12        -6.3080    1.0050   -0.6770 n         1 MOL     -0.543868
    124 C39        -6.2760    2.3970   -0.0610 c3        1 MOL      0.482617
    125 C40        -4.8600    2.8700    0.2170 c         1 MOL      0.221940
    126 O19        -3.9110    2.1160    0.1250 o         1 MOL     -0.336096
    127 C41        -7.1740    2.3840    1.2300 c3        1 MOL     -0.102041
    128 C42        -7.1280    1.0650    1.9900 ca        1 MOL      0.181616
    129 C43        -8.2440    0.2050    2.0770 ca        1 MOL     -0.187986
    130 C44        -5.9980    0.7300    2.6700 ca        1 MOL     -0.187986
    131 C45        -8.1700   -1.0510    2.7720 ca        1 MOL     -0.256009
    132 C46        -5.9010   -0.4990    3.3590 ca        1 MOL     -0.256009
    133 C47        -6.9580   -1.4610    3.4050 ca        1 MOL      0.317352
    134 O20        -6.7290   -2.7120    3.8360 oh        1 MOL     -0.437284
    135 H56        -5.4770    0.4580   -0.5230 hn        1 MOL      0.181351
    136 H57        -6.7010    3.1480   -0.7230 h1        1 MOL     -0.024949
    137 H58        -8.1900    2.4310    0.8190 hc        1 MOL      0.013594
    138 H59        -7.0750    3.2600    1.8700 hc        1 MOL      0.013594
    139 H60        -9.1480    0.5570    1.6040 ha        1 MOL      0.109480
    140 H61        -5.1350    1.3780    2.6560 ha        1 MOL      0.109480
    141 H62        -9.0440   -1.6760    2.6400 ha        1 MOL      0.133993
    142 H63        -4.9700   -0.8350    3.8060 ha        1 MOL      0.133993
    143 H64        -7.4960   -3.2520    3.6280 ho        1 MOL      0.307121
    144 N13        -4.7630    4.1350    0.5620 n         1 MOL     -0.491927
    145 C48        -3.5750    4.8710    1.0800 c3        1 MOL      0.012631
    146 C49        -2.4420    5.1170    0.1450 c         1 MOL      0.266446
    147 O21        -1.8360    6.1710    0.2300 o         1 MOL     -0.492583
    148 C50        -3.0980    4.2910    2.4190 c3        1 MOL     -0.049904
    149 C51        -4.2430    4.1780    3.4160 c3        1 MOL     -0.095642
    150 C52        -3.7230    3.5890    4.7600 c         1 MOL      0.568202
    151 O22        -3.3520    2.3430    4.7030 o         1 MOL     -0.656896
    152 O23        -3.5480    4.1890    5.7920 o         1 MOL     -0.656896
    153 H65        -5.5720    4.7420    0.5260 hn        1 MOL      0.311836
    154 H66        -3.9920    5.8570    1.2680 h1        1 MOL      0.083258
    155 H67        -2.2690    4.8750    2.7950 hc        1 MOL      0.090687
    156 H68        -2.7620    3.2710    2.2330 hc        1 MOL      0.090687
    157 H69        -5.0510    3.5100    3.1140 hc        1 MOL      0.001769
    158 H70        -4.7330    5.1360    3.6100 hc        1 MOL      0.001769
    159 N14        -2.0920    4.1520   -0.7380 n         1 MOL     -0.057414
    160 C53        -0.9220    4.2500   -1.6850 c3        1 MOL     -0.097432
    161 C54        -1.2440    5.0300   -2.9780 c         1 MOL      0.480958
    162 O24        -0.3630    5.6900   -3.6080 o         1 MOL     -0.523653
    163 C55        -0.4160    2.9050   -1.9810 c3        1 MOL      0.042215
    164 C56        -0.0780    2.0560   -0.7650 c3        1 MOL      0.475436
    165 C57         1.0920    2.5360    0.1000 c         1 MOL      0.536247
    166 O25         1.0000    3.6190    0.7260 o         1 MOL     -0.640097
    167 O26         2.0520    1.7680    0.3100 o         1 MOL     -0.640097
    168 H71        -2.7310    3.3660   -0.7960 hn        1 MOL      0.152435
    169 H72        -0.1540    4.8470   -1.1960 h1        1 MOL      0.139360
    170 H73         0.4310    2.8740   -2.6780 hc        1 MOL     -0.036605
    171 H74        -1.2300    2.4290   -2.5400 hc        1 MOL     -0.036605
    172 H75         0.1500    1.0600   -1.1420 hc        1 MOL     -0.212688
    173 H76        -1.0240    1.9940   -0.2220 hc        1 MOL     -0.212688
    174 N15        -2.5570    5.0500   -3.4260 n         1 MOL     -0.278040
    175 C58        -3.1630    6.0260   -4.4030 c3        1 MOL     -0.373455
    176 H77        -4.2230    5.8060   -4.5260 h1        1 MOL      0.141756
    177 H78        -3.0450    7.0410   -4.0230 h1        1 MOL      0.141756
    178 H79        -2.6590    5.9370   -5.3660 h1        1 MOL      0.141756
    179 H80        -3.1850    4.4190   -2.9440 hn        1 MOL      0.225964
    180 Ca1         4.5290    1.9850    1.2530 Ca        1 MOL      1.523051
    181 O27         6.6420    0.6250    2.1500 oh        1 MOL     -0.824947
    182 H81         7.4880    0.4190    1.7590 ho        1 MOL      0.394984
    183 H82         6.8110    0.7290    3.0850 ho        1 MOL      0.394984
    184 O28         5.2420    2.7810    3.6790 oh        1 MOL     -0.824947
    185 H83         4.3200    2.5980    3.8920 ho        1 MOL      0.394984
    186 H84         5.6860    2.7540    4.5340 ho        1 MOL      0.394984
    187 O29         3.3580    4.2880    1.7360 oh        1 MOL     -0.824947
    188 H85         3.3810    4.9420    2.4380 ho        1 MOL      0.394984
    189 H86         2.4620    4.3050    1.4120 ho        1 MOL      0.394984
@<TRIPOS>BOND
     1    1    2 1   
     2    1    4 1   
     3    1    5 1   
     4    1    6 1   
     5    2    3 2   
     6    2    7 1   
     7    7    8 1   
     8    7   15 1   
     9    8    9 1   
    10    8   11 1   
    11    8   16 1   
    12    9   10 2   
    13    9   19 1   
    14   11   12 1   
    15   11   17 1   
    16   11   18 1   
    17   12   13 1   
    18   12   14 1   
    19   19   20 1   
    20   19   27 1   
    21   20   21 1   
    22   20   23 1   
    23   20   28 1   
    24   21   22 2   
    25   21   38 1   
    26   23   24 1   
    27   23   25 1   
    28   23   29 1   
    29   24   26 1   
    30   24   30 1   
    31   24   31 1   
    32   25   32 1   
    33   25   33 1   
    34   25   34 1   
    35   26   35 1   
    36   26   36 1   
    37   26   37 1   
    38   38   39 1   
    39   38   46 1   
    40   39   40 1   
    41   39   42 1   
    42   39   47 1   
    43   40   41 2   
    44   40   50 1   
    45   42   43 1   
    46   42   48 1   
    47   42   49 1   
    48   43   44 1   
    49   43   45 1   
    50   50   51 1   
    51   50   54 1   
    52   51   52 1   
    53   51   55 1   
    54   51   56 1   
    55   52   53 2   
    56   52   57 1   
    57   57   58 1   
    58   57   65 1   
    59   58   59 1   
    60   58   61 1   
    61   58   66 1   
    62   59   60 2   
    63   59   69 1   
    64   61   62 1   
    65   61   67 1   
    66   61   68 1   
    67   62   63 1   
    68   62   64 1   
    69   69   70 1   
    70   69   73 1   
    71   70   71 1   
    72   70   74 1   
    73   70   75 1   
    74   71   72 2   
    75   71   76 1   
    76   76   77 1   
    77   76   85 1   
    78   77   78 1   
    79   77   80 1   
    80   77   86 1   
    81   78   79 2   
    82   78   93 1   
    83   80   81 1   
    84   80   87 1   
    85   80   88 1   
    86   81   82 1   
    87   81   89 1   
    88   81   90 1   
    89   82   83 1   
    90   82   84 2   
    91   83   91 1   
    92   83   92 1   
    93   93   94 1   
    94   93  100 1   
    95   94   95 1   
    96   94   97 1   
    97   94  101 1   
    98   95   96 2   
    99   95  109 1   
   100   97   98 1   
   101   97   99 1   
   102   97  102 1   
   103   98  103 1   
   104   98  104 1   
   105   98  105 1   
   106   99  106 1   
   107   99  107 1   
   108   99  108 1   
   109  109  110 1   
   110  109  117 1   
   111  110  111 1   
   112  110  113 1   
   113  110  118 1   
   114  111  112 2   
   115  111  123 1   
   116  113  114 1   
   117  113  119 1   
   118  113  120 1   
   119  114  115 1   
   120  114  116 2   
   121  115  121 1   
   122  115  122 1   
   123  123  124 1   
   124  123  135 1   
   125  124  125 1   
   126  124  127 1   
   127  124  136 1   
   128  125  126 2   
   129  125  144 1   
   130  127  128 1   
   131  127  137 1   
   132  127  138 1   
   133  128  129 ar  
   134  128  130 ar  
   135  129  131 ar  
   136  129  139 1   
   137  130  132 ar  
   138  130  140 1   
   139  131  133 ar  
   140  131  141 1   
   141  132  133 ar  
   142  132  142 1   
   143  133  134 1   
   144  134  143 1   
   145  144  145 1   
   146  144  153 1   
   147  145  146 1   
   148  145  148 1   
   149  145  154 1   
   150  146  147 2   
   151  146  159 1   
   152  148  149 1   
   153  148  155 1   
   154  148  156 1   
   155  149  150 1   
   156  149  157 1   
   157  149  158 1   
   158  150  151 1   
   159  150  152 1   
   160  159  160 1   
   161  159  168 1   
   162  160  161 1   
   163  160  163 1   
   164  160  169 1   
   165  161  162 2   
   166  161  174 1   
   167  163  164 1   
   168  163  170 1   
   169  163  171 1   
   170  164  165 1   
   171  164  172 1   
   172  164  173 1   
   173  165  166 1   
   174  165  167 1   
   175  174  175 1   
   176  174  179 1   
   177  175  176 1   
   178  175  177 1   
   179  175  178 1   
   180  181  182 1   
   181  181  183 1   
   182  184  185 1   
   183  184  186 1   
   184  187  188 1   
   185  187  189 1   
@<TRIPOS>SUBSTRUCTURE
     1 MOL         1 TEMP              0 ****  ****    0 ROOT
