@<TRIPOS>MOLECULE
MOL
  192   187     1     0     0
SMALL
resp


@<TRIPOS>ATOM
      1 C1         10.4600   -0.3390    0.5950 c3        1 MOL     -0.241599
      2 C2          8.9510   -0.5420    0.2840 c         1 MOL      0.575527
      3 O1          8.1530   -0.6120    1.1830 o         1 MOL     -0.582882
      4 H1         10.9860   -0.0730   -0.3220 hc        1 MOL      0.060245
      5 H2         10.5770    0.4620    1.3240 hc        1 MOL      0.060245
      6 H3         10.8770   -1.2620    0.9980 hc        1 MOL      0.060245
      7 N1          8.6350   -0.6150   -0.9890 n         1 MOL     -0.355280
      8 C3          7.2730   -0.6810   -1.5080 c3        1 MOL     -0.066883
      9 C4          6.5920   -2.0770   -1.2800 c         1 MOL      0.614835
     10 O2          6.0270   -2.5830   -2.2340 o         1 MOL     -0.487033
     11 C5          7.3630   -0.2680   -3.0320 c3        1 MOL     -0.121002
     12 C6          8.2090    1.0040   -3.2800 c         1 MOL      0.703582
     13 O3          7.5770    2.0540   -3.5100 o         1 MOL     -0.651763
     14 O4          9.4830    0.9800   -3.3320 o         1 MOL     -0.651763
     15 H4          9.3060   -0.5150   -1.7360 hn        1 MOL      0.221533
     16 H5          6.6910    0.0440   -0.9340 h1        1 MOL      0.123094
     17 H6          6.3510   -0.0790   -3.3980 hc        1 MOL      0.044597
     18 H7          7.8430   -1.0260   -3.6450 hc        1 MOL      0.044597
     19 N2          6.6260   -2.5940   -0.0430 n         1 MOL     -0.504458
     20 C7          6.1250   -3.9360    0.3060 c3        1 MOL      0.143240
     21 C8          4.6570   -4.1680   -0.2180 c         1 MOL      0.438796
     22 O5          4.3110   -5.1780   -0.8440 o         1 MOL     -0.547236
     23 C9          6.2900   -4.3120    1.7840 c3        1 MOL     -0.285879
     24 C10         7.7150   -4.1750    2.2830 c3        1 MOL      0.140505
     25 C11         8.0640   -4.7390    3.6630 c3        1 MOL     -0.107941
     26 C12         9.5330   -4.4810    3.9910 c3        1 MOL      0.094477
     27 N3         10.0120   -5.2540    5.1670 n4        1 MOL     -0.281003
     28 H8          7.0450   -1.9700    0.6340 hn        1 MOL      0.178487
     29 H9          6.6710   -4.6060   -0.3640 h1        1 MOL      0.057605
     30 H10         6.0090   -5.3670    1.8250 hc        1 MOL      0.093091
     31 H11         5.6310   -3.7280    2.4110 hc        1 MOL      0.093091
     32 H12         7.9860   -3.1170    2.3980 hc        1 MOL      0.014687
     33 H13         8.4650   -4.5800    1.6070 hc        1 MOL      0.014687
     34 H14         7.9100   -5.8120    3.7680 hc        1 MOL      0.042555
     35 H15         7.4580   -4.1600    4.3630 hc        1 MOL      0.042555
     36 H16         9.5490   -3.4010    4.1600 hx        1 MOL      0.061145
     37 H17        10.1740   -4.6930    3.1360 hx        1 MOL      0.061145
     38 H18         9.4020   -5.0540    5.9490 hn        1 MOL      0.260920
     39 H19        10.0060   -6.2370    4.9610 hn        1 MOL      0.260920
     40 H20        10.9430   -5.0130    5.4910 hn        1 MOL      0.260920
     41 N4          3.7550   -3.2520   -0.0050 n         1 MOL     -0.290188
     42 C13         3.8540   -2.0320    0.7860 c3        1 MOL      0.013750
     43 C14         4.0360   -0.7490   -0.0330 c         1 MOL      0.231966
     44 O6          3.9260   -0.7720   -1.3030 o         1 MOL     -0.384875
     45 C15         2.6020   -2.0420    1.7420 c3        1 MOL     -0.380525
     46 C16         1.2940   -2.2160    0.9330 c         1 MOL      0.656945
     47 O7          0.9650   -1.3540    0.0700 o         1 MOL     -0.640799
     48 O8          0.5210   -3.1410    1.2280 o         1 MOL     -0.640799
     49 H21         2.8840   -3.3280   -0.5180 hn        1 MOL      0.346785
     50 H22         4.6990   -2.0600    1.4700 h1        1 MOL      0.137628
     51 H23         2.5720   -1.0170    2.0970 hc        1 MOL      0.101757
     52 H24         2.6130   -2.7760    2.5390 hc        1 MOL      0.101757
     53 N5          4.2550    0.3490    0.6880 n         1 MOL     -0.322188
     54 C17         4.4150    1.6290    0.0450 c3        1 MOL      0.009424
     55 C18         3.2190    2.2780   -0.6330 c         1 MOL      0.691435
     56 O9          2.0830    1.8010   -0.4300 o         1 MOL     -0.717902
     57 H25         4.1480    0.4150    1.6850 hn        1 MOL      0.304305
     58 H26         5.0860    1.4860   -0.8060 h1        1 MOL      0.051921
     59 H27         4.8930    2.3080    0.7540 h1        1 MOL      0.051921
     60 N6          3.4360    3.4670   -1.3720 n         1 MOL     -0.720158
     61 C19         2.4380    4.3000   -2.0700 c3        1 MOL      0.648733
     62 C20         2.7780    5.8190   -2.0870 c         1 MOL      0.271296
     63 O10         3.9630    6.1530   -2.1090 o         1 MOL     -0.483247
     64 C21         2.0920    3.8880   -3.4980 c3        1 MOL     -0.309783
     65 C22         1.3630    2.5810   -3.4800 c         1 MOL      0.704212
     66 O11         0.4150    2.4550   -2.6910 o         1 MOL     -0.685463
     67 O12         1.5670    1.7340   -4.3820 o         1 MOL     -0.685463
     68 H28         4.4000    3.7020   -1.5390 hn        1 MOL      0.331678
     69 H29         1.5610    4.0670   -1.4670 h1        1 MOL     -0.087331
     70 H30         3.0590    3.8510   -3.9950 hc        1 MOL      0.079928
     71 H31         1.5130    4.6960   -3.9320 hc        1 MOL      0.079928
     72 N7          1.8040    6.7820   -2.1690 n         1 MOL     -0.388822
     73 C23         0.4030    6.5950   -2.2360 c3        1 MOL     -0.055826
     74 C24        -0.2510    6.2010   -0.8670 c         1 MOL      0.614470
     75 O13         0.3760    6.3850    0.1520 o         1 MOL     -0.465382
     76 H32         2.2160    7.7060   -2.2000 hn        1 MOL      0.310980
     77 H33         0.1560    5.7980   -2.9350 h1        1 MOL      0.060767
     78 H34        -0.0660    7.5200   -2.5510 h1        1 MOL      0.060767
     79 N8         -1.5640    5.7740   -0.9310 n         1 MOL     -0.533448
     80 C25        -2.2490    5.2120    0.1640 c3        1 MOL     -0.249374
     81 C26        -1.5560    3.9840    0.6860 c         1 MOL      0.702199
     82 O14        -1.1600    3.0780   -0.0450 o         1 MOL     -0.591799
     83 C27        -3.6970    4.9370   -0.1520 c3        1 MOL      0.272053
     84 C28        -4.4740    4.4980    1.1180 c3        1 MOL     -0.089694
     85 O15        -3.7120    3.9650   -1.1800 oh        1 MOL     -0.573536
     86 H35        -2.1150    5.7380   -1.7680 hn        1 MOL      0.289659
     87 H36        -2.1610    6.0140    0.9040 h1        1 MOL      0.126372
     88 H37        -4.3370    5.7520   -0.5160 h1        1 MOL      0.043693
     89 H38        -2.9570    4.1120   -1.7620 ho        1 MOL      0.425083
     90 H39        -4.5760    3.4120    1.2250 hc        1 MOL      0.035664
     91 H40        -4.1210    4.9440    2.0490 hc        1 MOL      0.035664
     92 H41        -5.4690    4.9430    1.1090 hc        1 MOL      0.035664
     93 N9         -1.4800    3.8750    1.9800 n         1 MOL     -0.635828
     94 C29        -0.8830    2.8720    2.9100 c3        1 MOL      0.094018
     95 C30        -1.3720    1.5250    2.4500 c         1 MOL      0.601367
     96 O16        -0.8300    0.8780    1.6190 o         1 MOL     -0.596771
     97 C31         0.6080    2.9960    2.8240 c3        1 MOL      0.108349
     98 C32         1.1160    4.3170    3.4050 c3        1 MOL      0.023640
     99 C33         1.3460    1.9430    3.6650 c3        1 MOL     -0.484556
    100 C34         2.5900    4.6610    3.6600 c3        1 MOL     -0.111669
    101 H42        -1.7910    4.7110    2.4510 hn        1 MOL      0.292277
    102 H43        -1.1060    3.0450    3.9660 h1        1 MOL      0.063542
    103 H44         0.9340    2.9970    1.7790 hc        1 MOL      0.157685
    104 H45         0.5830    4.4050    4.3540 hc        1 MOL     -0.018082
    105 H46         0.7820    5.1160    2.7350 hc        1 MOL     -0.018082
    106 H47         2.4420    1.8960    3.6840 hc        1 MOL      0.118611
    107 H48         0.9050    1.9270    4.6590 hc        1 MOL      0.118611
    108 H49         1.2130    0.9290    3.2930 hc        1 MOL      0.118611
    109 H50         3.0200    4.4740    2.6710 hc        1 MOL      0.034151
    110 H51         2.7080    5.7000    3.9630 hc        1 MOL      0.034151
    111 H52         3.0630    4.0200    4.4050 hc        1 MOL      0.034151
    112 N10        -2.4420    1.0790    3.0610 n         1 MOL     -0.442038
    113 C35        -2.8300   -0.3230    2.9150 c3        1 MOL     -0.137233
    114 C36        -4.3000   -0.7580    2.8930 c         1 MOL      0.477440
    115 O17        -4.6360   -1.9450    2.8040 o         1 MOL     -0.549352
    116 C37        -1.9930   -1.2430    3.7850 c3        1 MOL      0.337726
    117 C38        -2.1730   -0.9030    5.2680 c3        1 MOL     -0.391540
    118 O18        -0.6100   -1.2730    3.4480 oh        1 MOL     -0.532286
    119 H53        -2.7520    1.6830    3.8080 hn        1 MOL      0.272688
    120 H54        -2.5740   -0.6080    1.8970 h1        1 MOL      0.173310
    121 H55        -2.2620   -2.2900    3.6410 h1        1 MOL      0.043723
    122 H56        -0.4610   -2.0040    2.8420 ho        1 MOL      0.349340
    123 H57        -1.8300   -1.7210    5.8840 hc        1 MOL      0.096630
    124 H58        -1.4840   -0.0870    5.5110 hc        1 MOL      0.096630
    125 H59        -3.2110   -0.6070    5.4470 hc        1 MOL      0.096630
    126 N11        -5.1930    0.2550    2.8380 n         1 MOL     -0.119716
    127 C39        -6.6250    0.1350    2.9400 c3        1 MOL     -0.068116
    128 C40        -7.1210   -0.4570    1.6240 c         1 MOL      0.570342
    129 O19        -7.5130    0.2930    0.7490 o         1 MOL     -0.511828
    130 C41        -7.1820    1.4960    3.3420 c3        1 MOL      0.324918
    131 C42        -7.4880    1.5240    4.8320 c3        1 MOL     -0.097466
    132 O20        -6.2860    2.6010    3.1400 oh        1 MOL     -0.660752
    133 H60        -4.8730    1.2110    2.7700 hn        1 MOL      0.179653
    134 H61        -6.7650   -0.6060    3.7300 h1        1 MOL      0.052765
    135 H62        -8.1410    1.7330    2.9000 h1        1 MOL      0.006869
    136 H63        -6.7450    3.4370    3.2520 ho        1 MOL      0.424878
    137 H64        -8.2170    0.7500    5.0820 hc        1 MOL      0.017066
    138 H65        -6.5760    1.4130    5.4130 hc        1 MOL      0.017066
    139 H66        -7.9200    2.4630    5.1670 hc        1 MOL      0.017066
    140 N12        -6.8840   -1.7550    1.3340 n         1 MOL     -0.777154
    141 C43        -6.7130   -2.3700    0.0150 c3        1 MOL      0.471375
    142 C44        -5.4550   -1.8420   -0.6570 c         1 MOL      0.332673
    143 O21        -5.1600   -0.6290   -0.5980 o         1 MOL     -0.430428
    144 C45        -7.9200   -2.2760   -0.9510 c3        1 MOL     -0.525805
    145 C46        -9.2450   -2.6840   -0.3870 c3        1 MOL     -0.052940
    146 C47       -10.3600   -2.7420   -1.4100 c3        1 MOL      0.066987
    147 C48       -11.7180   -3.0520   -0.7830 c3        1 MOL      0.091646
    148 N13       -12.8890   -2.6660   -1.5800 n4        1 MOL     -0.292792
    149 H67        -6.5120   -2.2520    2.1290 hn        1 MOL      0.367674
    150 H68        -6.5170   -3.4340    0.1550 h1        1 MOL     -0.001457
    151 H69        -7.6710   -2.9430   -1.7860 hc        1 MOL      0.179481
    152 H70        -7.9680   -1.2220   -1.2120 hc        1 MOL      0.179481
    153 H71        -9.5940   -1.9190    0.3080 hc        1 MOL      0.059770
    154 H72        -9.2630   -3.6730    0.0660 hc        1 MOL      0.059770
    155 H73       -10.1260   -3.5010   -2.1660 hc        1 MOL      0.023076
    156 H74       -10.3690   -1.8480   -2.0150 hc        1 MOL      0.023076
    157 H75       -11.8390   -2.6280    0.2180 hx        1 MOL      0.037207
    158 H76       -11.8100   -4.0930   -0.4860 hx        1 MOL      0.037207
    159 H77       -13.6160   -2.4800   -0.9000 hn        1 MOL      0.255532
    160 H78       -12.7010   -1.8120   -2.0880 hn        1 MOL      0.255532
    161 H79       -13.1760   -3.4520   -2.1430 hn        1 MOL      0.255532
    162 N14        -4.7280   -2.8170   -1.2620 n         1 MOL     -0.421083
    163 C49        -3.5850   -2.6120   -2.1530 c3        1 MOL      0.283442
    164 C50        -2.1950   -2.5120   -1.5050 c         1 MOL      0.533850
    165 O22        -1.4900   -1.5870   -1.6730 o         1 MOL     -0.667726
    166 C51        -3.5810   -3.6410   -3.2660 c3        1 MOL     -0.019478
    167 C52        -4.8280   -3.7700   -4.1280 c3        1 MOL     -0.124108
    168 C53        -4.7030   -4.9420   -5.1360 c         1 MOL      0.603519
    169 O23        -5.0380   -6.1150   -4.7670 o         1 MOL     -0.617509
    170 O24        -4.1280   -4.7130   -6.2410 o         1 MOL     -0.617509
    171 H80        -5.1210   -3.7460   -1.3000 hn        1 MOL      0.307203
    172 H81        -3.6420   -1.6160   -2.5890 h1        1 MOL      0.038080
    173 H82        -3.4030   -4.6000   -2.7880 hc        1 MOL      0.039178
    174 H83        -2.7800   -3.3260   -3.9310 hc        1 MOL      0.039178
    175 H84        -4.9710   -2.7680   -4.5340 hc        1 MOL     -0.030098
    176 H85        -5.6870   -3.9580   -3.4780 hc        1 MOL     -0.030098
    177 N15        -1.8210   -3.4270   -0.6080 n         1 MOL     -0.441219
    178 C54        -2.4890   -4.6540   -0.1300 c3        1 MOL     -0.072681
    179 H86        -3.3670   -4.8510   -0.7440 h1        1 MOL      0.049917
    180 H87        -1.8000   -5.4950   -0.2020 h1        1 MOL      0.049917
    181 H88        -2.7940   -4.5210    0.9070 h1        1 MOL      0.049917
    182 H89        -0.9650   -3.1560   -0.1330 hn        1 MOL      0.359215
    183 Ca1        -0.2320    0.6660   -0.9740 Ca        1 MOL      1.797854
    184 O25         1.6740   -0.3480   -2.6260 oh        1 MOL     -0.860694
    185 H90         1.7880    0.3260   -3.2910 ho        1 MOL      0.410648
    186 H91         2.5320   -0.4300   -2.2150 ho        1 MOL      0.410648
    187 O26        -2.1120    0.6370   -3.2300 oh        1 MOL     -0.860694
    188 H92        -2.0610   -0.2450   -3.6110 ho        1 MOL      0.410648
    189 H93        -1.9160    1.2270   -3.9600 ho        1 MOL      0.410648
    190 O27        -2.9730    0.9930   -0.5110 oh        1 MOL     -0.860694
    191 H94        -3.7990    0.5350   -0.6750 ho        1 MOL      0.410648
    192 H95        -3.2320    1.8730   -0.2600 ho        1 MOL      0.410648
@<TRIPOS>BOND
     1    1    2 1   
     2    1    4 1   
     3    1    5 1   
     4    1    6 1   
     5    2    3 2   
     6    2    7 1   
     7    7    8 1   
     8    7   15 1   
     9    8    9 1   
    10    8   11 1   
    11    8   16 1   
    12    9   10 2   
    13    9   19 1   
    14   11   12 1   
    15   11   17 1   
    16   11   18 1   
    17   12   13 1   
    18   12   14 1   
    19   19   20 1   
    20   19   28 1   
    21   20   21 1   
    22   20   23 1   
    23   20   29 1   
    24   21   22 2   
    25   21   41 1   
    26   23   24 1   
    27   23   30 1   
    28   23   31 1   
    29   24   25 1   
    30   24   32 1   
    31   24   33 1   
    32   25   26 1   
    33   25   34 1   
    34   25   35 1   
    35   26   27 1   
    36   26   36 1   
    37   26   37 1   
    38   27   38 1   
    39   27   39 1   
    40   27   40 1   
    41   41   42 1   
    42   41   49 1   
    43   42   43 1   
    44   42   45 1   
    45   42   50 1   
    46   43   44 2   
    47   43   53 1   
    48   45   46 1   
    49   45   51 1   
    50   45   52 1   
    51   46   47 1   
    52   46   48 1   
    53   53   54 1   
    54   53   57 1   
    55   54   55 1   
    56   54   58 1   
    57   54   59 1   
    58   55   56 2   
    59   55   60 1   
    60   60   61 1   
    61   60   68 1   
    62   61   62 1   
    63   61   64 1   
    64   61   69 1   
    65   62   63 2   
    66   62   72 1   
    67   64   65 1   
    68   64   70 1   
    69   64   71 1   
    70   65   66 1   
    71   65   67 1   
    72   72   73 1   
    73   72   76 1   
    74   73   74 1   
    75   73   77 1   
    76   73   78 1   
    77   74   75 2   
    78   74   79 1   
    79   79   80 1   
    80   79   86 1   
    81   80   81 1   
    82   80   83 1   
    83   80   87 1   
    84   81   82 2   
    85   81   93 1   
    86   83   84 1   
    87   83   85 1   
    88   83   88 1   
    89   84   90 1   
    90   84   91 1   
    91   84   92 1   
    92   85   89 1   
    93   93   94 1   
    94   93  101 1   
    95   94   95 1   
    96   94   97 1   
    97   94  102 1   
    98   95   96 2   
    99   95  112 1   
   100   97   98 1   
   101   97   99 1   
   102   97  103 1   
   103   98  100 1   
   104   98  104 1   
   105   98  105 1   
   106   99  106 1   
   107   99  107 1   
   108   99  108 1   
   109  100  109 1   
   110  100  110 1   
   111  100  111 1   
   112  112  113 1   
   113  112  119 1   
   114  113  114 1   
   115  113  116 1   
   116  113  120 1   
   117  114  115 2   
   118  114  126 1   
   119  116  117 1   
   120  116  118 1   
   121  116  121 1   
   122  117  123 1   
   123  117  124 1   
   124  117  125 1   
   125  118  122 1   
   126  126  127 1   
   127  126  133 1   
   128  127  128 1   
   129  127  130 1   
   130  127  134 1   
   131  128  129 2   
   132  128  140 1   
   133  130  131 1   
   134  130  132 1   
   135  130  135 1   
   136  131  137 1   
   137  131  138 1   
   138  131  139 1   
   139  132  136 1   
   140  140  141 1   
   141  140  149 1   
   142  141  142 1   
   143  141  144 1   
   144  141  150 1   
   145  142  143 2   
   146  142  162 1   
   147  144  145 1   
   148  144  151 1   
   149  144  152 1   
   150  145  146 1   
   151  145  153 1   
   152  145  154 1   
   153  146  147 1   
   154  146  155 1   
   155  146  156 1   
   156  147  148 1   
   157  147  157 1   
   158  147  158 1   
   159  148  159 1   
   160  148  160 1   
   161  148  161 1   
   162  162  163 1   
   163  162  171 1   
   164  163  164 1   
   165  163  166 1   
   166  163  172 1   
   167  164  165 2   
   168  164  177 1   
   169  166  167 1   
   170  166  173 1   
   171  166  174 1   
   172  167  168 1   
   173  167  175 1   
   174  167  176 1   
   175  168  169 1   
   176  168  170 1   
   177  177  178 1   
   178  177  182 1   
   179  178  179 1   
   180  178  180 1   
   181  178  181 1   
   182  184  185 1   
   183  184  186 1   
   184  187  188 1   
   185  187  189 1   
   186  190  191 1   
   187  190  192 1   
@<TRIPOS>SUBSTRUCTURE
     1 MOL         1 TEMP              0 ****  ****    0 ROOT
