@<TRIPOS>MOLECULE
MOL
  181   177     1     0     0
SMALL
resp


@<TRIPOS>ATOM
      1 C1          3.6300   -1.5680    4.3750 c3        1 MOL     -0.543945
      2 C2          4.8150   -0.6080    4.1370 c         1 MOL      0.811240
      3 O1          4.9080    0.4410    4.7360 o         1 MOL     -0.597038
      4 H1          3.3130   -1.5000    5.4150 hc        1 MOL      0.144779
      5 H2          2.8010   -1.2900    3.7240 hc        1 MOL      0.144779
      6 H3          3.9400   -2.5890    4.1550 hc        1 MOL      0.144779
      7 N1          5.7120   -0.9740    3.2380 n         1 MOL     -0.772776
      8 C3          6.8670   -0.1720    2.7530 c3        1 MOL      0.390513
      9 C4          7.0460   -0.3530    1.2840 c         1 MOL      0.577268
     10 O2          6.9770   -1.4760    0.7010 o         1 MOL     -0.578673
     11 C5          8.0900   -0.6090    3.5820 c3        1 MOL     -0.183183
     12 C6          9.1730    0.4440    3.8780 c         1 MOL      0.724966
     13 O3          9.9920    0.2350    4.8330 o         1 MOL     -0.735690
     14 O4          9.1980    1.5400    3.2590 o         1 MOL     -0.735690
     15 H4          5.5360   -1.8200    2.7140 hn        1 MOL      0.336708
     16 H5          6.6680    0.8500    3.0600 h1        1 MOL      0.002889
     17 H6          8.5280   -1.3650    2.9340 hc        1 MOL      0.008660
     18 H7          7.7120   -1.0740    4.4850 hc        1 MOL      0.008660
     19 N2          7.3030    0.7660    0.6130 n         1 MOL     -0.681116
     20 C7          7.0890    0.8710   -0.8470 c3        1 MOL      0.554807
     21 C8          5.5880    0.8540   -1.2540 c         1 MOL      0.351160
     22 O5          4.7520    0.7070   -0.4040 o         1 MOL     -0.477582
     23 C9          7.9240    2.1450   -1.3080 c3        1 MOL     -0.447995
     24 H8          7.2450    1.6150    1.1620 hn        1 MOL      0.313980
     25 H9          7.5280    0.0700   -1.4360 h1        1 MOL     -0.009229
     26 H10         7.3720    3.0430   -1.0420 hc        1 MOL      0.110744
     27 H11         8.8930    2.2440   -0.8170 hc        1 MOL      0.110744
     28 H12         8.0520    2.1160   -2.3890 hc        1 MOL      0.110744
     29 N3          5.2510    0.9620   -2.5560 n         1 MOL     -0.643539
     30 C10         3.8490    1.0700   -3.1030 c3        1 MOL     -0.085774
     31 C11         3.4720    2.4950   -3.5790 c         1 MOL      0.737277
     32 O6          2.7840    2.6550   -4.5800 o         1 MOL     -0.569379
     33 C12         3.5270   -0.0370   -4.0660 c3        1 MOL     -0.114329
     34 C13         3.7360   -1.4110   -3.4240 c         1 MOL      0.897269
     35 O7          2.7250   -1.9420   -2.9080 o         1 MOL     -0.775653
     36 O8          4.7500   -2.0500   -3.7520 o         1 MOL     -0.775653
     37 H13         6.0030    1.0880   -3.2190 hn        1 MOL      0.348435
     38 H14         3.1770    0.9370   -2.2570 h1        1 MOL      0.103256
     39 H15         4.0680    0.0170   -5.0080 hc        1 MOL      0.037484
     40 H16         2.4950    0.0310   -4.3990 hc        1 MOL      0.037484
     41 N4          3.9720    3.5620   -2.9450 n         1 MOL     -0.494760
     42 C14         3.9760    4.9410   -3.4060 c3        1 MOL     -0.197065
     43 C15         2.6410    5.7090   -3.3420 c         1 MOL      0.532236
     44 O9          2.6140    6.8570   -3.7910 o         1 MOL     -0.553352
     45 H17         4.6410    3.3490   -2.2140 hn        1 MOL      0.330571
     46 H18         4.2730    4.8010   -4.4420 h1        1 MOL      0.119191
     47 H19         4.7230    5.5750   -2.9240 h1        1 MOL      0.119191
     48 N5          1.5190    5.1740   -2.8660 n         1 MOL     -0.204330
     49 C16         0.3660    5.9510   -2.4780 c3        1 MOL     -0.066106
     50 C17        -0.1180    5.6240   -1.0330 c         1 MOL      0.480139
     51 O10        -0.4860    4.5050   -0.7980 o         1 MOL     -0.414307
     52 C18        -0.7140    5.8070   -3.4980 c3        1 MOL     -0.203136
     53 C19        -1.6780    7.0020   -3.4300 c         1 MOL      0.622644
     54 N6         -2.5000    6.9320   -2.4240 n         1 MOL     -0.728800
     55 O11        -1.5650    7.9720   -4.1270 o         1 MOL     -0.563081
     56 H20         1.6290    4.1950   -2.6260 hn        1 MOL      0.195282
     57 H21         0.5450    7.0270   -2.5270 h1        1 MOL      0.085820
     58 H22        -1.2330    4.8570   -3.4170 hc        1 MOL      0.094131
     59 H23        -0.1980    5.8120   -4.4610 hc        1 MOL      0.094131
     60 H24        -2.4780    6.0740   -1.8790 hn        1 MOL      0.339142
     61 H25        -2.8130    7.8210   -2.0830 hn        1 MOL      0.339142
     62 N7         -0.3880    6.5930   -0.1260 n         1 MOL     -0.488786
     63 C20        -1.0030    6.3170    1.1670 c3        1 MOL     -0.063757
     64 C21        -2.4710    5.6910    1.0740 c         1 MOL      0.472594
     65 O12        -3.0940    5.5470   -0.0160 o         1 MOL     -0.431291
     66 H26        -0.3040    7.5550   -0.4220 hn        1 MOL      0.317796
     67 H27        -1.1730    7.2500    1.6960 h1        1 MOL      0.094339
     68 H28        -0.4200    5.6170    1.7740 h1        1 MOL      0.094339
     69 N8         -2.9780    5.3190    2.2530 n         1 MOL     -0.439116
     70 C22        -4.3530    4.8090    2.4410 c3        1 MOL     -0.033800
     71 C23        -4.4530    3.3280    2.9160 c         1 MOL      0.544550
     72 O13        -5.5180    2.6470    2.7840 o         1 MOL     -0.543875
     73 C24        -5.1010    5.7150    3.4230 c3        1 MOL      0.423725
     74 C25        -4.6360    5.4880    4.9070 c3        1 MOL     -0.423773
     75 O14        -4.9170    7.1120    3.0770 oh        1 MOL     -0.633023
     76 H29        -2.3980    5.5950    3.0330 hn        1 MOL      0.248478
     77 H30        -4.9570    4.8170    1.5350 h1        1 MOL      0.091880
     78 H31        -6.1640    5.4580    3.3090 h1        1 MOL      0.031155
     79 H32        -4.0050    7.3570    3.2430 ho        1 MOL      0.384778
     80 H33        -4.8710    6.3700    5.4950 hc        1 MOL      0.100133
     81 H34        -5.0740    4.5990    5.3560 hc        1 MOL      0.100133
     82 H35        -3.5740    5.2400    4.9080 hc        1 MOL      0.100133
     83 N9         -3.2710    2.8420    3.4080 n         1 MOL     -0.342879
     84 C26        -3.0310    1.3800    3.4910 c3        1 MOL      0.094042
     85 C27        -2.0730    0.8110    2.4970 c         1 MOL      0.482029
     86 O15        -0.9880    1.4820    2.2530 o         1 MOL     -0.517911
     87 C28        -2.6560    1.0260    4.9520 c3        1 MOL     -0.075390
     88 C29        -3.8030    1.4410    5.9570 c3        1 MOL     -0.273627
     89 C30        -2.3720   -0.4580    4.9360 c3        1 MOL      0.254873
     90 C31        -5.2410    0.9160    5.7750 c3        1 MOL     -0.028721
     91 H36        -2.3980    3.3320    3.4620 hn        1 MOL      0.246168
     92 H37        -3.9600    0.8560    3.3020 h1        1 MOL      0.077813
     93 H38        -1.6930    1.4900    5.1450 hc        1 MOL      0.045681
     94 H39        -3.8780    2.5300    5.9420 hc        1 MOL      0.081170
     95 H40        -3.6000    1.1360    6.9770 hc        1 MOL      0.081170
     96 H41        -2.0760   -0.8130    5.9230 hc        1 MOL     -0.058080
     97 H42        -3.2850   -0.9700    4.6070 hc        1 MOL     -0.058080
     98 H43        -1.5710   -0.8410    4.3160 hc        1 MOL     -0.058080
     99 H44        -5.1600   -0.1580    5.8760 hc        1 MOL      0.021166
    100 H45        -5.8860    1.3170    6.5530 hc        1 MOL      0.021166
    101 H46        -5.6010    1.2070    4.7830 hc        1 MOL      0.021166
    102 N10        -2.3940   -0.3690    1.8800 n         1 MOL     -0.710881
    103 C32        -1.5640   -1.0160    0.8780 c3        1 MOL      0.596310
    104 C33        -2.5510   -1.7600   -0.0800 c         1 MOL      0.302640
    105 O16        -2.3820   -2.9150   -0.3290 o         1 MOL     -0.311526
    106 C34        -0.6110   -1.9800    1.6120 c3        1 MOL     -0.399567
    107 C35         0.4030   -2.6470    0.6390 c         1 MOL      0.667767
    108 O17         0.6180   -2.1430   -0.4400 o         1 MOL     -0.687241
    109 O18         1.2200   -3.5430    1.0160 o         1 MOL     -0.687241
    110 H47        -3.2530   -0.8190    2.1790 hn        1 MOL      0.351311
    111 H48        -0.9230   -0.3520    0.2910 h1        1 MOL     -0.017531
    112 H49        -1.2020   -2.7190    2.1530 hc        1 MOL      0.091110
    113 H50        -0.0700   -1.4140    2.3740 hc        1 MOL      0.091110
    114 N11        -3.6030   -1.0100   -0.4970 n         1 MOL     -0.530837
    115 C36        -4.5240   -1.4370   -1.5010 c3        1 MOL      0.346350
    116 C37        -5.0650   -2.8910   -1.2500 c         1 MOL      0.250315
    117 O19        -5.6550   -3.1090   -0.2120 o         1 MOL     -0.500870
    118 C38        -5.7390   -0.4870   -1.4000 c3        1 MOL     -0.238853
    119 C39        -5.4800    0.9820   -1.8590 ca        1 MOL      0.130688
    120 C40        -5.4420    2.0390   -0.9680 ca        1 MOL     -0.197477
    121 C41        -5.2940    1.3640   -3.2020 ca        1 MOL     -0.197477
    122 C42        -5.2470    3.3990   -1.3740 ca        1 MOL     -0.080502
    123 C43        -4.9060    2.7060   -3.6170 ca        1 MOL     -0.080502
    124 C44        -5.0100    3.7690   -2.7000 ca        1 MOL     -0.122799
    125 H51        -3.6850   -0.0460   -0.1900 hn        1 MOL      0.282200
    126 H52        -4.0900   -1.3250   -2.5000 h1        1 MOL      0.004397
    127 H53        -6.2310   -0.4590   -0.4330 hc        1 MOL      0.091603
    128 H54        -6.4000   -0.8400   -2.1960 hc        1 MOL      0.091603
    129 H55        -5.5400    1.8920    0.1010 ha        1 MOL      0.102503
    130 H56        -5.3610    0.5700   -3.9250 ha        1 MOL      0.102503
    131 H57        -5.2250    4.1270   -0.5710 ha        1 MOL      0.103246
    132 H58        -4.6330    2.8710   -4.6430 ha        1 MOL      0.103246
    133 H59        -4.8960    4.7890   -3.0290 ha        1 MOL      0.104371
    134 N12        -4.9970   -3.7920   -2.2410 n         1 MOL     -0.095204
    135 C45        -5.6370   -5.0850   -2.0050 c3        1 MOL      0.024410
    136 C46        -4.8510   -6.1140   -1.2030 c         1 MOL      0.323891
    137 O20        -5.3030   -7.1190   -0.7140 o         1 MOL     -0.506027
    138 C47        -5.9470   -5.5450   -3.4410 c3        1 MOL     -0.163289
    139 C48        -4.7080   -5.1290   -4.1790 c3        1 MOL      0.003455
    140 C49        -4.5720   -3.7260   -3.6450 c3        1 MOL     -0.069790
    141 H60        -6.5460   -4.9630   -1.4240 h1        1 MOL      0.086652
    142 H61        -6.1120   -6.6130   -3.4370 hc        1 MOL      0.068586
    143 H62        -6.7980   -5.0090   -3.8850 hc        1 MOL      0.068586
    144 H63        -3.7660   -5.6690   -4.0230 hc        1 MOL      0.029261
    145 H64        -4.8740   -4.9410   -5.2470 hc        1 MOL      0.029261
    146 H65        -3.5520   -3.3670   -3.7200 h1        1 MOL      0.057172
    147 H66        -5.1550   -2.9820   -4.1760 h1        1 MOL      0.057172
    148 N13        -3.5500   -5.8880   -0.9530 n         1 MOL     -0.068525
    149 C50        -2.6760   -6.6560   -0.1490 c3        1 MOL     -0.165154
    150 C51        -3.1960   -6.6680    1.3220 c         1 MOL      0.494502
    151 O21        -3.0780   -7.6900    1.9930 o         1 MOL     -0.555232
    152 C52        -1.2140   -6.2060   -0.1190 c3        1 MOL      0.225687
    153 C53        -0.4510   -6.4360   -1.4070 c3        1 MOL     -0.185019
    154 C54         0.8700   -5.6530   -1.4430 c         1 MOL      0.689516
    155 O22         1.7140   -5.9310   -0.5670 o         1 MOL     -0.704307
    156 O23         1.0120   -4.7210   -2.2680 o         1 MOL     -0.704307
    157 H67        -3.1210   -5.1160   -1.4430 hn        1 MOL      0.189533
    158 H68        -2.6620   -7.6940   -0.4880 h1        1 MOL      0.076791
    159 H69        -0.6460   -6.8250    0.5720 hc        1 MOL     -0.020089
    160 H70        -1.1830   -5.1370    0.0930 hc        1 MOL     -0.020089
    161 H71        -1.0560   -6.0250   -2.2180 hc        1 MOL      0.000678
    162 H72        -0.2980   -7.4870   -1.6330 hc        1 MOL      0.000678
    163 N14        -3.5440   -5.5190    1.8530 n         1 MOL     -0.319235
    164 C55        -3.5040   -5.3330    3.3580 c3        1 MOL     -0.151562
    165 H73        -3.6000   -6.3030    3.8460 h1        1 MOL      0.084020
    166 H74        -2.5560   -4.8750    3.6430 h1        1 MOL      0.084020
    167 H75        -4.3270   -4.6880    3.6670 h1        1 MOL      0.084020
    168 H76        -3.5360   -4.7390    1.2080 hn        1 MOL      0.252071
    169 Ca1         2.8660   -3.5250   -0.9140 Ca        1 MOL      1.656374
    170 O24         3.4750   -1.5160    0.8450 oh        1 MOL     -0.789008
    171 H77         2.8270   -1.0460    1.3700 ho        1 MOL      0.384900
    172 H78         3.8580   -0.8460    0.2810 ho        1 MOL      0.384900
    173 O25         4.3710   -5.3170   -2.2140 oh        1 MOL     -0.789008
    174 H79         4.3100   -6.1260   -2.7310 ho        1 MOL      0.384900
    175 H80         5.2860   -5.0530   -2.2950 ho        1 MOL      0.384900
    176 O26         4.3540   -4.7190    0.9960 oh        1 MOL     -0.789008
    177 H81         5.2470   -4.7570    0.6660 ho        1 MOL      0.384900
    178 H82         4.4330   -4.8730    1.9350 ho        1 MOL      0.384900
    179 O27         5.4160   -2.9000   -1.0620 oh        1 MOL     -0.789008
    180 H83         5.7120   -2.6590   -1.9420 ho        1 MOL      0.384900
    181 H84         6.0620   -2.5080   -0.4750 ho        1 MOL      0.384900
@<TRIPOS>BOND
     1    1    2 1   
     2    1    4 1   
     3    1    5 1   
     4    1    6 1   
     5    2    3 2   
     6    2    7 1   
     7    7    8 1   
     8    7   15 1   
     9    8    9 1   
    10    8   11 1   
    11    8   16 1   
    12    9   10 2   
    13    9   19 1   
    14   11   12 1   
    15   11   17 1   
    16   11   18 1   
    17   12   13 1   
    18   12   14 1   
    19   19   20 1   
    20   19   24 1   
    21   20   21 1   
    22   20   23 1   
    23   20   25 1   
    24   21   22 2   
    25   21   29 1   
    26   23   26 1   
    27   23   27 1   
    28   23   28 1   
    29   29   30 1   
    30   29   37 1   
    31   30   31 1   
    32   30   33 1   
    33   30   38 1   
    34   31   32 2   
    35   31   41 1   
    36   33   34 1   
    37   33   39 1   
    38   33   40 1   
    39   34   35 1   
    40   34   36 1   
    41   41   42 1   
    42   41   45 1   
    43   42   43 1   
    44   42   46 1   
    45   42   47 1   
    46   43   44 2   
    47   43   48 1   
    48   48   49 1   
    49   48   56 1   
    50   49   50 1   
    51   49   52 1   
    52   49   57 1   
    53   50   51 2   
    54   50   62 1   
    55   52   53 1   
    56   52   58 1   
    57   52   59 1   
    58   53   54 1   
    59   53   55 2   
    60   54   60 1   
    61   54   61 1   
    62   62   63 1   
    63   62   66 1   
    64   63   64 1   
    65   63   67 1   
    66   63   68 1   
    67   64   65 2   
    68   64   69 1   
    69   69   70 1   
    70   69   76 1   
    71   70   71 1   
    72   70   73 1   
    73   70   77 1   
    74   71   72 2   
    75   71   83 1   
    76   73   74 1   
    77   73   75 1   
    78   73   78 1   
    79   74   80 1   
    80   74   81 1   
    81   74   82 1   
    82   75   79 1   
    83   83   84 1   
    84   83   91 1   
    85   84   85 1   
    86   84   87 1   
    87   84   92 1   
    88   85   86 2   
    89   85  102 1   
    90   87   88 1   
    91   87   89 1   
    92   87   93 1   
    93   88   90 1   
    94   88   94 1   
    95   88   95 1   
    96   89   96 1   
    97   89   97 1   
    98   89   98 1   
    99   90   99 1   
   100   90  100 1   
   101   90  101 1   
   102  102  103 1   
   103  102  110 1   
   104  103  104 1   
   105  103  106 1   
   106  103  111 1   
   107  104  105 2   
   108  104  114 1   
   109  106  107 1   
   110  106  112 1   
   111  106  113 1   
   112  107  108 1   
   113  107  109 1   
   114  114  115 1   
   115  114  125 1   
   116  115  116 1   
   117  115  118 1   
   118  115  126 1   
   119  116  117 2   
   120  116  134 1   
   121  118  119 1   
   122  118  127 1   
   123  118  128 1   
   124  119  120 ar  
   125  119  121 ar  
   126  120  122 ar  
   127  120  129 1   
   128  121  123 ar  
   129  121  130 1   
   130  122  124 ar  
   131  122  131 1   
   132  123  124 ar  
   133  123  132 1   
   134  124  133 1   
   135  134  135 1   
   136  134  140 1   
   137  135  136 1   
   138  135  138 1   
   139  135  141 1   
   140  136  137 2   
   141  136  148 1   
   142  138  139 1   
   143  138  142 1   
   144  138  143 1   
   145  139  140 1   
   146  139  144 1   
   147  139  145 1   
   148  140  146 1   
   149  140  147 1   
   150  148  149 1   
   151  148  157 1   
   152  149  150 1   
   153  149  152 1   
   154  149  158 1   
   155  150  151 2   
   156  150  163 1   
   157  152  153 1   
   158  152  159 1   
   159  152  160 1   
   160  153  154 1   
   161  153  161 1   
   162  153  162 1   
   163  154  155 1   
   164  154  156 1   
   165  163  164 1   
   166  163  168 1   
   167  164  165 1   
   168  164  166 1   
   169  164  167 1   
   170  170  171 1   
   171  170  172 1   
   172  173  174 1   
   173  173  175 1   
   174  176  177 1   
   175  176  178 1   
   176  179  180 1   
   177  179  181 1   
@<TRIPOS>SUBSTRUCTURE
     1 MOL         1 TEMP              0 ****  ****    0 ROOT
