@<TRIPOS>MOLECULE
MOL
  198   191     1     0     0
SMALL
resp


@<TRIPOS>ATOM
      1 C1          6.4040    2.3250    5.7070 c3        1 MOL     -0.347962
      2 C2          5.8980    1.7620    4.3090 c         1 MOL      0.681315
      3 O1          5.5200    2.5360    3.4780 o         1 MOL     -0.556482
      4 H1          5.5450    2.6100    6.3150 hc        1 MOL      0.087264
      5 H2          6.9760    1.5550    6.2240 hc        1 MOL      0.087264
      6 H3          7.0350    3.1980    5.5400 hc        1 MOL      0.087264
      7 N1          5.9450    0.4560    4.0050 n         1 MOL     -0.376412
      8 C3          5.5470   -0.0430    2.6700 c3        1 MOL      0.100686
      9 C4          4.0880    0.0410    2.2640 c         1 MOL     -0.029223
     10 O2          3.7320   -0.2720    1.1300 o         1 MOL     -0.156600
     11 C5          5.9890   -1.5050    2.5700 c3        1 MOL     -0.064438
     12 C6          7.4190   -1.8090    2.9510 c         1 MOL      0.604262
     13 O3          7.7690   -1.8150    4.1550 o         1 MOL     -0.681014
     14 O4          8.3080   -2.0450    2.0250 o         1 MOL     -0.681014
     15 H4          6.2030   -0.2260    4.7070 hn        1 MOL      0.231238
     16 H5          6.1030    0.5210    1.9110 h1        1 MOL      0.105470
     17 H6          5.8350   -1.8900    1.5580 hc        1 MOL     -0.023259
     18 H7          5.3640   -2.0480    3.2790 hc        1 MOL     -0.023259
     19 N2          3.1560    0.3420    3.2100 n         1 MOL     -0.060184
     20 C7          1.6690    0.2770    3.0340 c3        1 MOL      0.064052
     21 C8          1.0440    1.6550    2.6810 c         1 MOL      0.261050
     22 O5          1.4240    2.7380    3.1440 o         1 MOL     -0.454173
     23 C9          1.1790   -0.2430    4.3700 c3        1 MOL     -0.019580
     24 C10         1.5630   -1.7280    4.6930 c3        1 MOL     -0.066061
     25 C11         0.3130   -2.4580    5.1880 c3        1 MOL     -0.120072
     26 C12        -0.1570   -1.9650    6.5700 c3        1 MOL      0.069317
     27 N3         -1.2760   -2.9020    7.1030 n4        1 MOL     -0.386444
     28 H8          3.6470    0.6010    4.0600 hn        1 MOL      0.147404
     29 H9          1.4100   -0.3620    2.1890 h1        1 MOL      0.010558
     30 H10         0.0890   -0.2430    4.2730 hc        1 MOL      0.032714
     31 H11         1.4010    0.4740    5.1530 hc        1 MOL      0.032714
     32 H12         2.3260   -1.6690    5.4580 hc        1 MOL      0.051618
     33 H13         1.9520   -2.2910    3.8400 hc        1 MOL      0.051618
     34 H14         0.4950   -3.5340    5.2790 hc        1 MOL      0.063111
     35 H15        -0.4780   -2.4090    4.4310 hc        1 MOL      0.063111
     36 H16        -0.5810   -0.9650    6.4840 hx        1 MOL      0.078733
     37 H17         0.6900   -1.8660    7.2480 hx        1 MOL      0.078733
     38 H18        -2.1210   -2.7950    6.5710 hn        1 MOL      0.330505
     39 H19        -0.9240   -3.8470    7.0980 hn        1 MOL      0.330505
     40 H20        -1.5600   -2.7030    8.0520 hn        1 MOL      0.330505
     41 N4         -0.0810    1.8250    1.9060 n         1 MOL     -0.160196
     42 C13        -0.8780    0.8920    1.0850 c3        1 MOL     -0.140909
     43 C14        -1.2440   -0.4480    1.7350 c         1 MOL      0.618707
     44 O6         -0.4920   -1.4350    1.7190 o         1 MOL     -0.487809
     45 C15        -0.2500    0.6420   -0.3470 c3        1 MOL     -0.011554
     46 C16        -0.3160    1.8570   -1.2310 c         1 MOL      0.591019
     47 O7         -1.1770    2.7330   -0.9310 o         1 MOL     -0.706554
     48 O8          0.4460    1.9500   -2.2410 o         1 MOL     -0.706554
     49 H21        -0.2820    2.7840    1.6810 hn        1 MOL      0.158714
     50 H22        -1.8330    1.3170    0.7800 h1        1 MOL     -0.067676
     51 H23        -0.9230   -0.1160   -0.7530 hc        1 MOL      0.063942
     52 H24         0.7520    0.2300   -0.3040 hc        1 MOL      0.063942
     53 N5         -2.4610   -0.6540    2.2880 n         1 MOL     -0.610255
     54 C17        -3.5600    0.3720    2.2470 c3        1 MOL      0.125363
     55 C18        -4.8040   -0.0050    3.0090 c         1 MOL      0.561385
     56 O9         -4.8170   -1.0350    3.6350 o         1 MOL     -0.542405
     57 H25        -2.7280   -1.6100    2.5030 hn        1 MOL      0.333736
     58 H26        -3.9110    0.5570    1.2310 h1        1 MOL      0.087338
     59 H27        -3.2130    1.2890    2.7210 h1        1 MOL      0.087338
     60 N6         -5.9720    0.6630    2.8760 n         1 MOL     -0.605876
     61 C19        -6.2680    1.8840    2.0900 c3        1 MOL      0.253147
     62 C20        -7.0150    1.6190    0.8160 c         1 MOL      0.287042
     63 O10        -7.8250    0.6910    0.6730 o         1 MOL     -0.365188
     64 C21        -6.9600    2.9500    2.9530 c3        1 MOL     -0.206735
     65 C22        -8.1900    2.4540    3.6990 c         1 MOL      0.750126
     66 O11        -9.3180    2.5590    3.1730 o         1 MOL     -0.676107
     67 O12        -8.1280    1.9930    4.8780 o         1 MOL     -0.676107
     68 H28        -6.7120    0.2300    3.3970 hn        1 MOL      0.349944
     69 H29        -5.2990    2.2400    1.7500 h1        1 MOL     -0.078570
     70 H30        -7.1980    3.8350    2.3660 hc        1 MOL      0.018757
     71 H31        -6.3390    3.3170    3.7670 hc        1 MOL      0.018757
     72 N7         -6.7540    2.4350   -0.2400 n         1 MOL     -0.127843
     73 C23        -7.2880    2.2880   -1.5720 c3        1 MOL     -0.181782
     74 C24        -6.8750    0.9880   -2.2970 c         1 MOL      0.439602
     75 O13        -7.6850    0.2310   -2.8540 o         1 MOL     -0.476330
     76 H32        -6.1880    3.2560   -0.0730 hn        1 MOL      0.130147
     77 H33        -7.1040    3.1660   -2.1840 h1        1 MOL      0.102044
     78 H34        -8.3750    2.2240   -1.5630 h1        1 MOL      0.102044
     79 N8         -5.5770    0.6610   -2.0650 n         1 MOL     -0.271745
     80 C25        -4.8960   -0.4850   -2.5440 c3        1 MOL      0.022555
     81 C26        -4.9660   -1.6410   -1.5620 c         1 MOL      0.650460
     82 O14        -5.1730   -1.4440   -0.3970 o         1 MOL     -0.498659
     83 C27        -3.4360   -0.1030   -2.8570 c3        1 MOL      0.360460
     84 C28        -3.0100    1.0570   -3.7060 c3        1 MOL     -0.216038
     85 O15        -2.6460   -1.2690   -3.2100 oh        1 MOL     -0.696837
     86 H35        -5.0190    1.2820   -1.5090 hn        1 MOL      0.095457
     87 H36        -5.3040   -0.7480   -3.5220 h1        1 MOL      0.050873
     88 H37        -3.0080    0.1820   -1.8970 h1        1 MOL      0.007439
     89 H38        -1.8310   -0.8940   -3.5630 ho        1 MOL      0.429692
     90 H39        -3.6890    1.2500   -4.5430 hc        1 MOL      0.056446
     91 H40        -2.8810    1.9830   -3.1630 hc        1 MOL      0.056446
     92 H41        -2.0380    0.8780   -4.1560 hc        1 MOL      0.056446
     93 N9         -4.9790   -2.8360   -2.0310 n         1 MOL     -0.631729
     94 C29        -4.9250   -4.0680   -1.1790 c3        1 MOL      0.080801
     95 C30        -3.5010   -4.4940   -0.9750 c         1 MOL      0.459642
     96 O16        -3.3320   -5.2150    0.0020 o         1 MOL     -0.513479
     97 C31        -5.7840   -5.1630   -1.8380 c3        1 MOL      0.305082
     98 C32        -6.2640   -6.3750   -0.9680 c3        1 MOL     -0.028838
     99 C33        -5.1420   -5.6460   -3.1020 c3        1 MOL     -0.453463
    100 C34        -7.2010   -6.0070    0.1720 c3        1 MOL     -0.200630
    101 H42        -4.8170   -2.9280   -3.0260 hn        1 MOL      0.325338
    102 H43        -5.3130   -3.8480   -0.1870 h1        1 MOL      0.105380
    103 H44        -6.6670   -4.6390   -2.1850 hc        1 MOL     -0.014866
    104 H45        -5.3330   -6.7530   -0.5580 hc        1 MOL      0.023241
    105 H46        -6.7580   -7.0910   -1.6190 hc        1 MOL      0.023241
    106 H47        -4.8960   -4.7710   -3.7020 hc        1 MOL      0.096402
    107 H48        -4.2970   -6.2300   -2.7560 hc        1 MOL      0.096402
    108 H49        -5.7830   -6.3370   -3.6620 hc        1 MOL      0.096402
    109 H50        -7.3990   -6.8730    0.7970 hc        1 MOL      0.048076
    110 H51        -6.6770   -5.2480    0.7580 hc        1 MOL      0.048076
    111 H52        -8.1080   -5.5550   -0.2330 hc        1 MOL      0.048076
    112 N10        -2.4540   -4.1160   -1.8220 n         1 MOL     -0.393223
    113 C35        -1.1430   -4.6350   -1.5820 c3        1 MOL      0.387119
    114 C36        -0.0430   -3.6120   -1.3040 c         1 MOL      0.223361
    115 O17        -0.0660   -2.4240   -1.7230 o         1 MOL     -0.411476
    116 C37        -0.6890   -5.5700   -2.7610 c3        1 MOL      0.172939
    117 C38        -0.3700   -4.8890   -4.0970 c3        1 MOL     -0.334415
    118 O18        -1.7140   -6.5500   -3.0610 oh        1 MOL     -0.635324
    119 H53        -2.5130   -3.3450   -2.4650 hn        1 MOL      0.229324
    120 H54        -1.1880   -5.2760   -0.6930 h1        1 MOL      0.008324
    121 H55         0.0260   -6.3060   -2.3640 h1        1 MOL      0.024993
    122 H56        -1.2990   -7.0770   -3.7580 ho        1 MOL      0.405196
    123 H57        -0.4700   -5.5990   -4.9160 hc        1 MOL      0.099687
    124 H58        -0.9650   -3.9780   -4.2470 hc        1 MOL      0.099687
    125 H59         0.6800   -4.6000   -4.2160 hc        1 MOL      0.099687
    126 N11         1.0120   -4.0680   -0.5900 n         1 MOL     -0.388335
    127 C39         2.2120   -3.2940   -0.2100 c3        1 MOL     -0.215531
    128 C40         2.9280   -2.8070   -1.4460 c         1 MOL      0.474920
    129 O19         2.8600   -3.4210   -2.4840 o         1 MOL     -0.513418
    130 C41         3.1300   -4.1040    0.7420 c3        1 MOL      0.151059
    131 C42         3.6990   -5.3140   -0.0210 c3        1 MOL     -0.326057
    132 O20         2.4080   -4.6490    1.7630 oh        1 MOL     -0.525443
    133 H60         0.9340   -5.0540   -0.3590 hn        1 MOL      0.310366
    134 H61         1.8070   -2.4430    0.3540 h1        1 MOL      0.247920
    135 H62         3.9770   -3.5960    1.1880 h1        1 MOL      0.109800
    136 H63         3.1170   -4.8660    2.3740 ho        1 MOL      0.380888
    137 H64         4.4440   -5.0110   -0.7540 hc        1 MOL      0.089384
    138 H65         4.1260   -6.0250    0.6810 hc        1 MOL      0.089384
    139 H66         2.9350   -5.9190   -0.4910 hc        1 MOL      0.089384
    140 N12         3.7610   -1.7750   -1.3640 n         1 MOL     -0.162236
    141 C43         4.6690   -1.2460   -2.4860 c3        1 MOL      0.018311
    142 C44         4.5270    0.2300   -2.6950 c         1 MOL      0.579792
    143 O21         4.7500    0.7400   -3.7920 o         1 MOL     -0.620783
    144 C45         6.1360   -1.4950   -2.2510 c3        1 MOL     -0.034075
    145 C46         6.9240   -1.4360   -3.5700 c3        1 MOL      0.174420
    146 C47         8.4080   -1.4700   -3.3820 c3        1 MOL     -0.179312
    147 C48         8.8390   -2.7530   -2.7400 c3        1 MOL      0.051670
    148 N13        10.2020   -2.6300   -2.2090 n4        1 MOL     -0.353713
    149 H67         3.6770   -1.2780   -0.4880 hn        1 MOL      0.023224
    150 H68         4.4040   -1.7630   -3.4120 h1        1 MOL      0.055655
    151 H69         6.2810   -2.4970   -1.8360 hc        1 MOL      0.020151
    152 H70         6.5630   -0.7850   -1.5400 hc        1 MOL      0.020151
    153 H71         6.7300   -0.4760   -4.0370 hc        1 MOL     -0.010280
    154 H72         6.6240   -2.2330   -4.2480 hc        1 MOL     -0.010280
    155 H73         8.6420   -0.7070   -2.6340 hc        1 MOL      0.063828
    156 H74         8.9600   -1.1700   -4.2800 hc        1 MOL      0.063828
    157 H75         8.6950   -3.5680   -3.4590 hx        1 MOL      0.074211
    158 H76         8.2550   -2.9210   -1.8360 hx        1 MOL      0.074211
    159 H77        10.2890   -1.8440   -1.5700 hn        1 MOL      0.325726
    160 H78        10.5780   -3.4440   -1.7510 hn        1 MOL      0.325726
    161 H79        10.7940   -2.4420   -3.0020 hn        1 MOL      0.325726
    162 N14         4.1450    0.9690   -1.6640 n         1 MOL     -0.270651
    163 C49         3.9900    2.4710   -1.6530 c3        1 MOL     -0.077213
    164 C50         5.3450    3.1810   -1.6570 c         1 MOL      0.267438
    165 O22         6.1110    3.0820   -0.6820 o         1 MOL     -0.491801
    166 C51         3.2340    2.7640   -0.3960 c3        1 MOL      0.345394
    167 C52         2.8300    4.2240   -0.1110 c3        1 MOL     -0.614126
    168 C53         2.1900    5.0000   -1.3630 c         1 MOL      0.822436
    169 O23         2.9860    5.5060   -2.1410 o         1 MOL     -0.717229
    170 O24         0.9360    5.1360   -1.4910 o         1 MOL     -0.717229
    171 H80         4.0720    0.4460   -0.8070 hn        1 MOL      0.118321
    172 H81         3.5170    2.8810   -2.5410 h1        1 MOL      0.177788
    173 H82         3.6950    2.3910    0.5170 hc        1 MOL      0.007354
    174 H83         2.3380    2.1470   -0.4210 hc        1 MOL      0.007354
    175 H84         3.7120    4.8130    0.1330 hc        1 MOL      0.144947
    176 H85         2.2000    4.3590    0.7710 hc        1 MOL      0.144947
    177 N15         5.5500    4.0570   -2.6650 n         1 MOL     -0.055959
    178 C54         6.8020    4.8410   -2.7800 c3        1 MOL     -0.196845
    179 H86         7.4240    4.4170   -3.5680 h1        1 MOL      0.084228
    180 H87         6.5630    5.8760   -3.0240 h1        1 MOL      0.084228
    181 H88         7.3430    4.8060   -1.8340 h1        1 MOL      0.084228
    182 H89         4.8950    3.9970   -3.4290 hn        1 MOL      0.203479
    183 Ca1        -1.4370    5.3860   -1.0950 Ca        1 MOL      1.673634
    184 O25        -3.2370    7.7660   -0.8040 oh        1 MOL     -0.819000
    185 H90        -2.8770    8.5010   -0.3070 ho        1 MOL      0.402850
    186 H91        -3.9250    8.1560   -1.3350 ho        1 MOL      0.402850
    187 O26        -0.0060    7.5490   -0.0600 oh        1 MOL     -0.819000
    188 H92        -0.6420    8.1060    0.4040 ho        1 MOL      0.402850
    189 H93         0.5160    8.1700   -0.5790 ho        1 MOL      0.402850
    190 O27        -3.7260    4.9100   -2.2650 oh        1 MOL     -0.819000
    191 H94        -4.0090    4.0270   -2.4990 ho        1 MOL      0.402850
    192 H95        -4.3900    5.2000   -1.6340 ho        1 MOL      0.402850
    193 O28        -1.2780    7.0180   -3.3830 oh        1 MOL     -0.819000
    194 H96        -1.9060    7.7430   -3.4450 ho        1 MOL      0.402850
    195 H97        -1.2540    6.6440   -4.2640 ho        1 MOL      0.402850
    196 O29        -0.8920    4.0980   -3.4870 oh        1 MOL     -0.819000
    197 H98        -0.5100    3.4360   -2.9170 ho        1 MOL      0.402850
    198 H99        -0.5970    3.8500   -4.3660 ho        1 MOL      0.402850
@<TRIPOS>BOND
     1    1    2 1   
     2    1    4 1   
     3    1    5 1   
     4    1    6 1   
     5    2    3 2   
     6    2    7 1   
     7    7    8 1   
     8    7   15 1   
     9    8    9 1   
    10    8   11 1   
    11    8   16 1   
    12    9   10 2   
    13    9   19 1   
    14   11   12 1   
    15   11   17 1   
    16   11   18 1   
    17   12   13 1   
    18   12   14 1   
    19   19   20 1   
    20   19   28 1   
    21   20   21 1   
    22   20   23 1   
    23   20   29 1   
    24   21   22 2   
    25   21   41 1   
    26   23   24 1   
    27   23   30 1   
    28   23   31 1   
    29   24   25 1   
    30   24   32 1   
    31   24   33 1   
    32   25   26 1   
    33   25   34 1   
    34   25   35 1   
    35   26   27 1   
    36   26   36 1   
    37   26   37 1   
    38   27   38 1   
    39   27   39 1   
    40   27   40 1   
    41   41   42 1   
    42   41   49 1   
    43   42   43 1   
    44   42   45 1   
    45   42   50 1   
    46   43   44 2   
    47   43   53 1   
    48   45   46 1   
    49   45   51 1   
    50   45   52 1   
    51   46   47 1   
    52   46   48 1   
    53   53   54 1   
    54   53   57 1   
    55   54   55 1   
    56   54   58 1   
    57   54   59 1   
    58   55   56 2   
    59   55   60 1   
    60   60   61 1   
    61   60   68 1   
    62   61   62 1   
    63   61   64 1   
    64   61   69 1   
    65   62   63 2   
    66   62   72 1   
    67   64   65 1   
    68   64   70 1   
    69   64   71 1   
    70   65   66 1   
    71   65   67 1   
    72   72   73 1   
    73   72   76 1   
    74   73   74 1   
    75   73   77 1   
    76   73   78 1   
    77   74   75 2   
    78   74   79 1   
    79   79   80 1   
    80   79   86 1   
    81   80   81 1   
    82   80   83 1   
    83   80   87 1   
    84   81   82 2   
    85   81   93 1   
    86   83   84 1   
    87   83   85 1   
    88   83   88 1   
    89   84   90 1   
    90   84   91 1   
    91   84   92 1   
    92   85   89 1   
    93   93   94 1   
    94   93  101 1   
    95   94   95 1   
    96   94   97 1   
    97   94  102 1   
    98   95   96 2   
    99   95  112 1   
   100   97   98 1   
   101   97   99 1   
   102   97  103 1   
   103   98  100 1   
   104   98  104 1   
   105   98  105 1   
   106   99  106 1   
   107   99  107 1   
   108   99  108 1   
   109  100  109 1   
   110  100  110 1   
   111  100  111 1   
   112  112  113 1   
   113  112  119 1   
   114  113  114 1   
   115  113  116 1   
   116  113  120 1   
   117  114  115 2   
   118  114  126 1   
   119  116  117 1   
   120  116  118 1   
   121  116  121 1   
   122  117  123 1   
   123  117  124 1   
   124  117  125 1   
   125  118  122 1   
   126  126  127 1   
   127  126  133 1   
   128  127  128 1   
   129  127  130 1   
   130  127  134 1   
   131  128  129 2   
   132  128  140 1   
   133  130  131 1   
   134  130  132 1   
   135  130  135 1   
   136  131  137 1   
   137  131  138 1   
   138  131  139 1   
   139  132  136 1   
   140  140  141 1   
   141  140  149 1   
   142  141  142 1   
   143  141  144 1   
   144  141  150 1   
   145  142  143 2   
   146  142  162 1   
   147  144  145 1   
   148  144  151 1   
   149  144  152 1   
   150  145  146 1   
   151  145  153 1   
   152  145  154 1   
   153  146  147 1   
   154  146  155 1   
   155  146  156 1   
   156  147  148 1   
   157  147  157 1   
   158  147  158 1   
   159  148  159 1   
   160  148  160 1   
   161  148  161 1   
   162  162  163 1   
   163  162  171 1   
   164  163  164 1   
   165  163  166 1   
   166  163  172 1   
   167  164  165 2   
   168  164  177 1   
   169  166  167 1   
   170  166  173 1   
   171  166  174 1   
   172  167  168 1   
   173  167  175 1   
   174  167  176 1   
   175  168  169 1   
   176  168  170 1   
   177  177  178 1   
   178  177  182 1   
   179  178  179 1   
   180  178  180 1   
   181  178  181 1   
   182  184  185 1   
   183  184  186 1   
   184  187  188 1   
   185  187  189 1   
   186  190  191 1   
   187  190  192 1   
   188  193  194 1   
   189  193  195 1   
   190  196  197 1   
   191  196  198 1   
@<TRIPOS>SUBSTRUCTURE
     1 MOL         1 TEMP              0 ****  ****    0 ROOT
