@<TRIPOS>MOLECULE
MOL
  198   191     1     0     0
SMALL
resp


@<TRIPOS>ATOM
      1 C1          6.2300   -4.1690    0.2760 c3        1 MOL     -0.325891
      2 C2          5.1090   -3.2810   -0.2730 c         1 MOL      0.708201
      3 O1          5.3930   -2.3150   -1.0350 o         1 MOL     -0.591481
      4 H1          6.7520   -4.6480   -0.5530 hc        1 MOL      0.090550
      5 H2          6.9330   -3.5600    0.8440 hc        1 MOL      0.090550
      6 H3          5.8040   -4.9340    0.9250 hc        1 MOL      0.090550
      7 N1          3.7770   -3.5480   -0.0400 n         1 MOL     -0.488701
      8 C3          3.1700   -4.5880    0.7630 c3        1 MOL     -0.261088
      9 C4          2.5780   -5.6620   -0.1780 c         1 MOL      0.599631
     10 O2          2.3020   -6.7650    0.2690 o         1 MOL     -0.558327
     11 C5          2.1400   -4.0320    1.7540 c3        1 MOL     -0.355592
     12 C6          2.4740   -2.8850    2.6210 c         1 MOL      0.891014
     13 O3          3.5710   -2.8570    3.2430 o         1 MOL     -0.773632
     14 O4          1.4820   -2.1800    2.9450 o         1 MOL     -0.773632
     15 H4          3.1350   -2.8930   -0.4710 hn        1 MOL      0.236213
     16 H5          3.9950   -5.0420    1.3210 h1        1 MOL      0.162150
     17 H6          1.8800   -4.8560    2.4170 hc        1 MOL      0.162548
     18 H7          1.2570   -3.7320    1.1880 hc        1 MOL      0.162548
     19 N2          2.2940   -5.3440   -1.4610 n         1 MOL     -0.202453
     20 C7          1.7410   -6.2430   -2.4600 c3        1 MOL     -0.463878
     21 C8          0.3140   -6.7440   -2.2080 c         1 MOL      0.569145
     22 O5         -0.1520   -7.7400   -2.7690 o         1 MOL     -0.551837
     23 C9          1.8500   -5.6600   -3.9140 c3        1 MOL      0.204877
     24 C10         1.2040   -4.3520   -4.0830 c3        1 MOL      0.373951
     25 C11         3.3380   -5.4970   -4.2440 c3        1 MOL     -0.310381
     26 C12         0.8210   -4.0720   -5.5480 c3        1 MOL     -0.336795
     27 H8          2.4920   -4.4150   -1.7710 hn        1 MOL      0.229568
     28 H9          2.2980   -7.1680   -2.3360 h1        1 MOL      0.170099
     29 H10         1.3760   -6.3540   -4.6110 hc        1 MOL      0.006374
     30 H11         1.7960   -3.5470   -3.6290 hc        1 MOL     -0.077698
     31 H12         0.2590   -4.3520   -3.5420 hc        1 MOL     -0.077698
     32 H13         3.8610   -4.7990   -3.5860 hc        1 MOL      0.061506
     33 H14         3.8670   -6.4390   -4.0810 hc        1 MOL      0.061506
     34 H15         3.4750   -5.2290   -5.2950 hc        1 MOL      0.061506
     35 H16         1.6770   -4.2080   -6.2110 hc        1 MOL      0.058881
     36 H17        -0.0170   -4.7100   -5.8460 hc        1 MOL      0.058881
     37 H18         0.6020   -3.0260   -5.7230 hc        1 MOL      0.058881
     38 N3         -0.4640   -5.9710   -1.3880 n         1 MOL     -0.340430
     39 C13        -1.9520   -5.9720   -1.1480 c3        1 MOL      0.267356
     40 C14        -2.4080   -5.4170    0.2080 c         1 MOL      0.319278
     41 O6         -1.5550   -4.7040    0.8390 o         1 MOL     -0.524184
     42 C15        -2.5980   -5.2000   -2.3410 c3        1 MOL     -0.297359
     43 C16        -4.1110   -5.6390   -2.5640 c         1 MOL      0.761277
     44 O7         -4.4500   -6.7400   -2.2020 o         1 MOL     -0.720613
     45 O8         -4.8840   -4.8850   -3.1310 o         1 MOL     -0.720613
     46 H19         0.0260   -5.3890   -0.7300 hn        1 MOL      0.204731
     47 H20        -2.3220   -6.9880   -1.2760 h1        1 MOL     -0.028040
     48 H21        -2.1730   -5.5430   -3.2810 hc        1 MOL      0.069423
     49 H22        -2.4960   -4.1170   -2.2090 hc        1 MOL      0.069423
     50 N4         -3.6870   -5.5920    0.5920 n         1 MOL     -0.318276
     51 C17        -4.3820   -4.8070    1.6080 c3        1 MOL     -0.056000
     52 C18        -4.9410   -3.4230    1.1730 c         1 MOL      0.755788
     53 O9         -4.3110   -2.7430    0.3660 o         1 MOL     -0.613799
     54 H23        -4.1920   -6.2900    0.0440 hn        1 MOL      0.262414
     55 H24        -3.6830   -4.5940    2.4200 h1        1 MOL      0.049369
     56 H25        -5.2400   -5.3170    2.0540 h1        1 MOL      0.049369
     57 N5         -6.0620   -3.0440    1.7090 n         1 MOL     -0.674647
     58 C19        -6.6710   -1.7830    1.4160 c3        1 MOL      0.346961
     59 C20        -7.1970   -1.7320   -0.0560 c         1 MOL      0.662683
     60 O10        -7.5230   -2.7460   -0.6040 o         1 MOL     -0.541901
     61 C21        -7.7230   -1.2950    2.4290 c3        1 MOL     -0.313876
     62 C22        -7.2860   -1.4990    3.8720 c         1 MOL      0.658098
     63 O11        -6.1820   -1.0160    4.2100 o         1 MOL     -0.701403
     64 O12        -7.8540   -2.3140    4.6110 o         1 MOL     -0.701403
     65 H26        -6.5210   -3.5990    2.4050 hn        1 MOL      0.358687
     66 H27        -5.9560   -0.9840    1.5820 h1        1 MOL     -0.019851
     67 H28        -8.6580   -1.7890    2.1370 hc        1 MOL      0.022250
     68 H29        -7.8330   -0.2350    2.1860 hc        1 MOL      0.022250
     69 N6         -7.3390   -0.5390   -0.6250 n         1 MOL     -0.786392
     70 C23        -6.7180    0.6750   -0.3070 c3        1 MOL      0.311531
     71 C24        -7.0020    1.8530   -1.2540 c         1 MOL      0.523332
     72 O13        -7.4860    1.6220   -2.3230 o         1 MOL     -0.556257
     73 H30        -7.7150   -0.6750   -1.5620 hn        1 MOL      0.343311
     74 H31        -5.6280    0.6150   -0.3410 h1        1 MOL      0.064019
     75 H32        -6.9600    0.9170    0.7280 h1        1 MOL      0.064019
     76 N7         -6.7200    3.0770   -0.8810 n         1 MOL     -0.519218
     77 C25        -6.3370    3.5560    0.3980 c3        1 MOL      0.134873
     78 C26        -5.0050    2.9110    0.9200 c         1 MOL      0.375498
     79 O14        -5.0980    2.1350    1.9020 o         1 MOL     -0.441770
     80 C27        -7.5340    3.5760    1.4330 c3        1 MOL     -0.169181
     81 C28        -8.9320    4.0350    0.8400 c3        1 MOL     -0.209186
     82 C29        -9.2510    5.4920    1.0520 c         1 MOL      0.660349
     83 N8         -9.6240    6.1840    0.0210 n         1 MOL     -0.778242
     84 O15        -9.2050    6.0440    2.1480 o         1 MOL     -0.576431
     85 H33        -7.0080    3.7690   -1.5590 hn        1 MOL      0.290429
     86 H34        -6.1200    4.5880    0.1450 h1        1 MOL      0.043321
     87 H35        -7.2370    4.2180    2.2600 hc        1 MOL      0.098321
     88 H36        -7.6300    2.5640    1.8170 hc        1 MOL      0.098321
     89 H37        -9.7600    3.4600    1.2790 hc        1 MOL      0.085480
     90 H38        -8.9700    3.8570   -0.2400 hc        1 MOL      0.085480
     91 H39        -9.5180    5.8980   -0.9400 hn        1 MOL      0.346920
     92 H40        -9.7130    7.1770    0.1890 hn        1 MOL      0.346920
     93 N9         -3.9430    3.1550    0.0980 n         1 MOL     -0.427697
     94 C30        -2.6750    2.4180    0.2500 c3        1 MOL     -0.247750
     95 C31        -2.2510    1.8550   -1.1070 c         1 MOL      0.747471
     96 O16        -2.6320    2.4190   -2.1270 o         1 MOL     -0.605933
     97 C32        -1.5820    3.1910    0.9520 c3        1 MOL      0.535239
     98 C33        -2.1400    3.5930    2.3700 c3        1 MOL     -0.466500
     99 C34        -1.1620    4.4750    0.1660 c3        1 MOL     -0.466500
    100 H41        -3.9730    3.9340   -0.5540 hn        1 MOL      0.274067
    101 H42        -2.8500    1.5480    0.8780 h1        1 MOL      0.131834
    102 H43        -0.7320    2.5400    1.1090 hc        1 MOL     -0.078006
    103 H44        -3.0810    4.1240    2.3060 hc        1 MOL      0.112227
    104 H45        -2.1800    2.5900    2.7980 hc        1 MOL      0.112227
    105 H46        -1.4050    4.2270    2.8730 hc        1 MOL      0.112227
    106 H47        -0.2100    4.8090    0.5730 hc        1 MOL      0.112227
    107 H48        -0.9490    4.3200   -0.8930 hc        1 MOL      0.112227
    108 H49        -1.9770    5.2000    0.1850 hc        1 MOL      0.112227
    109 N10        -1.5020    0.7680   -1.0990 n         1 MOL     -0.424312
    110 C35        -0.9740    0.0380   -2.2650 c3        1 MOL      0.049665
    111 C36         0.1660    0.6760   -3.0400 c         1 MOL      0.399865
    112 O17         0.7830    0.0850   -3.9020 o         1 MOL     -0.487756
    113 C37        -0.6970   -1.4460   -1.9330 c3        1 MOL     -0.325705
    114 C38         0.4940   -1.6500   -1.0490 c         1 MOL      0.708705
    115 N11         0.3800   -1.2540    0.2030 n         1 MOL     -0.954494
    116 O18         1.5760   -2.0970   -1.4410 o         1 MOL     -0.494395
    117 H50        -1.5890    0.2410   -0.2420 hn        1 MOL      0.184054
    118 H51        -1.8350    0.0110   -2.9360 h1        1 MOL      0.126692
    119 H52        -0.5830   -1.9290   -2.9070 hc        1 MOL      0.139840
    120 H53        -1.5030   -1.9700   -1.4210 hc        1 MOL      0.139840
    121 H54        -0.5180   -0.9940    0.6170 hn        1 MOL      0.439014
    122 H55         1.1510   -1.4010    0.8340 hn        1 MOL      0.439014
    123 N12         0.5730    1.9210   -2.6130 n         1 MOL     -0.059557
    124 C39         1.8370    2.5520   -3.0910 c3        1 MOL     -0.024261
    125 C40         2.6300    3.0350   -1.8480 c         1 MOL      0.664678
    126 O19         2.1220    2.8780   -0.7410 o         1 MOL     -0.603183
    127 C41         1.5180    3.5950   -4.1360 c3        1 MOL     -0.159115
    128 C42         0.6510    4.7460   -3.6490 ca        1 MOL      0.023168
    129 C43         1.1760    5.9030   -3.1020 ca        1 MOL     -0.084609
    130 C44        -0.7110    4.5470   -3.5800 ca        1 MOL     -0.084609
    131 C45         0.3190    6.8680   -2.5420 ca        1 MOL     -0.308552
    132 C46        -1.5860    5.4290   -3.0220 ca        1 MOL     -0.308552
    133 C47        -1.0870    6.5750   -2.3720 ca        1 MOL      0.395116
    134 O20        -2.0340    7.4400   -1.9400 oh        1 MOL     -0.554931
    135 H56         0.1670    2.2920   -1.7620 hn        1 MOL      0.014530
    136 H57         2.4850    1.7820   -3.5160 h1        1 MOL      0.083042
    137 H58         0.9170    3.0540   -4.8680 hc        1 MOL      0.053879
    138 H59         2.4520    3.9710   -4.5480 hc        1 MOL      0.053879
    139 H60         2.2470    6.0190   -3.0790 ha        1 MOL      0.099590
    140 H61        -1.0660    3.6080   -3.9600 ha        1 MOL      0.099590
    141 H62         0.6900    7.7650   -2.0760 ha        1 MOL      0.166938
    142 H63        -2.6580    5.2910   -3.0160 ha        1 MOL      0.166938
    143 H64        -2.9240    7.1210   -1.8140 ho        1 MOL      0.384650
    144 N13         3.8050    3.5780   -2.1020 n         1 MOL     -0.394220
    145 C48         4.6030    4.0720   -0.9970 c3        1 MOL      0.044944
    146 C49         5.8640    3.3420   -1.0340 c         1 MOL      0.334857
    147 O21         6.8310    3.7180   -1.6920 o         1 MOL     -0.473542
    148 C50         4.7660    5.5740   -1.0860 c3        1 MOL     -0.181413
    149 C51         5.5710    6.1260    0.1930 c3        1 MOL     -0.333508
    150 C52         5.6390    7.6510    0.3100 c         1 MOL      0.815181
    151 O22         4.5730    8.2540    0.2020 o         1 MOL     -0.758065
    152 O23         6.6740    8.2760    0.5700 o         1 MOL     -0.758065
    153 H65         4.0710    3.7490   -3.0600 hn        1 MOL      0.280286
    154 H66         4.0840    3.8410   -0.0650 h1        1 MOL      0.072136
    155 H67         3.7380    5.9390   -1.0200 hc        1 MOL      0.098582
    156 H68         5.2760    5.8570   -2.0100 hc        1 MOL      0.098582
    157 H69         6.5000    5.5550    0.2460 hc        1 MOL      0.065780
    158 H70         4.9530    5.8480    1.0490 hc        1 MOL      0.065780
    159 N14         5.8960    2.2200   -0.3240 n         1 MOL     -0.259147
    160 C53         6.8460    1.1340   -0.3970 c3        1 MOL     -0.100228
    161 C54         6.8030    0.3110   -1.7030 c         1 MOL      0.338622
    162 O24         7.6470   -0.5640   -1.9940 o         1 MOL     -0.503295
    163 C55         6.8730    0.1710    0.8740 c3        1 MOL      0.283529
    164 C56         6.6550    0.9050    2.2310 c3        1 MOL     -0.057642
    165 C57         6.8570   -0.1280    3.3280 c         1 MOL      0.549740
    166 O25         5.8450   -0.5080    3.9900 o         1 MOL     -0.677371
    167 O26         8.0300   -0.5430    3.6210 o         1 MOL     -0.677371
    168 H71         5.0570    2.0660    0.2170 hn        1 MOL      0.230531
    169 H72         7.8130    1.6160   -0.4690 h1        1 MOL      0.115701
    170 H73         7.8380   -0.3270    0.8800 hc        1 MOL     -0.011239
    171 H74         6.0220   -0.5070    0.7900 hc        1 MOL     -0.011239
    172 H75         5.6520    1.3390    2.2420 hc        1 MOL     -0.044529
    173 H76         7.3980    1.6950    2.2900 hc        1 MOL     -0.044529
    174 N15         5.7590    0.5900   -2.5450 n         1 MOL     -0.008686
    175 C58         5.6110    0.1920   -3.9410 c3        1 MOL     -0.364717
    176 H77         5.6930   -0.8930   -4.0190 h1        1 MOL      0.129731
    177 H78         4.6360    0.5090   -4.3090 h1        1 MOL      0.129731
    178 H79         6.3950    0.6590   -4.5370 h1        1 MOL      0.129731
    179 H80         5.0390    1.1810   -2.1470 hn        1 MOL      0.052712
    180 Ca1         3.3380   -0.5890    4.5330 Ca        1 MOL      1.641458
    181 O27         4.0070    2.0110    4.7260 oh        1 MOL     -0.776289
    182 H81         4.0160    2.7160    4.0740 ho        1 MOL      0.392352
    183 H82         4.8650    2.0750    5.1580 ho        1 MOL      0.392352
    184 O28         0.9640    0.7060    3.8780 oh        1 MOL     -0.776289
    185 H83         0.1670    0.1990    3.7400 ho        1 MOL      0.392352
    186 H84         0.8570    1.4700    3.3160 ho        1 MOL      0.392352
    187 O29         4.9060   -1.1380    6.6960 oh        1 MOL     -0.776289
    188 H85         5.8380   -0.9360    6.5640 ho        1 MOL      0.392352
    189 H86         4.8710   -1.5110    7.5840 ho        1 MOL      0.392352
    190 O30         2.1210    0.6350    6.6930 oh        1 MOL     -0.776289
    191 H87         2.2660    0.5470    7.6330 ho        1 MOL      0.392352
    192 H88         1.6600    1.4660    6.5900 ho        1 MOL      0.392352
    193 O31         2.0170   -2.2690    6.1650 oh        1 MOL     -0.776289
    194 H89         1.7560   -2.1060    7.0710 ho        1 MOL      0.392352
    195 H90         1.6840   -3.1460    5.9750 ho        1 MOL      0.392352
    196 O32         3.1870    0.2940    1.9770 oh        1 MOL     -0.776289
    197 H91         2.4590    0.9200    1.9770 ho        1 MOL      0.392352
    198 H92         3.4530    0.2460    1.0600 ho        1 MOL      0.392352
@<TRIPOS>BOND
     1    1    2 1   
     2    1    4 1   
     3    1    5 1   
     4    1    6 1   
     5    2    3 2   
     6    2    7 1   
     7    7    8 1   
     8    7   15 1   
     9    8    9 1   
    10    8   11 1   
    11    8   16 1   
    12    9   10 2   
    13    9   19 1   
    14   11   12 1   
    15   11   17 1   
    16   11   18 1   
    17   12   13 1   
    18   12   14 1   
    19   19   20 1   
    20   19   27 1   
    21   20   21 1   
    22   20   23 1   
    23   20   28 1   
    24   21   22 2   
    25   21   38 1   
    26   23   24 1   
    27   23   25 1   
    28   23   29 1   
    29   24   26 1   
    30   24   30 1   
    31   24   31 1   
    32   25   32 1   
    33   25   33 1   
    34   25   34 1   
    35   26   35 1   
    36   26   36 1   
    37   26   37 1   
    38   38   39 1   
    39   38   46 1   
    40   39   40 1   
    41   39   42 1   
    42   39   47 1   
    43   40   41 2   
    44   40   50 1   
    45   42   43 1   
    46   42   48 1   
    47   42   49 1   
    48   43   44 1   
    49   43   45 1   
    50   50   51 1   
    51   50   54 1   
    52   51   52 1   
    53   51   55 1   
    54   51   56 1   
    55   52   53 2   
    56   52   57 1   
    57   57   58 1   
    58   57   65 1   
    59   58   59 1   
    60   58   61 1   
    61   58   66 1   
    62   59   60 2   
    63   59   69 1   
    64   61   62 1   
    65   61   67 1   
    66   61   68 1   
    67   62   63 1   
    68   62   64 1   
    69   69   70 1   
    70   69   73 1   
    71   70   71 1   
    72   70   74 1   
    73   70   75 1   
    74   71   72 2   
    75   71   76 1   
    76   76   77 1   
    77   76   85 1   
    78   77   78 1   
    79   77   80 1   
    80   77   86 1   
    81   78   79 2   
    82   78   93 1   
    83   80   81 1   
    84   80   87 1   
    85   80   88 1   
    86   81   82 1   
    87   81   89 1   
    88   81   90 1   
    89   82   83 1   
    90   82   84 2   
    91   83   91 1   
    92   83   92 1   
    93   93   94 1   
    94   93  100 1   
    95   94   95 1   
    96   94   97 1   
    97   94  101 1   
    98   95   96 2   
    99   95  109 1   
   100   97   98 1   
   101   97   99 1   
   102   97  102 1   
   103   98  103 1   
   104   98  104 1   
   105   98  105 1   
   106   99  106 1   
   107   99  107 1   
   108   99  108 1   
   109  109  110 1   
   110  109  117 1   
   111  110  111 1   
   112  110  113 1   
   113  110  118 1   
   114  111  112 2   
   115  111  123 1   
   116  113  114 1   
   117  113  119 1   
   118  113  120 1   
   119  114  115 1   
   120  114  116 2   
   121  115  121 1   
   122  115  122 1   
   123  123  124 1   
   124  123  135 1   
   125  124  125 1   
   126  124  127 1   
   127  124  136 1   
   128  125  126 2   
   129  125  144 1   
   130  127  128 1   
   131  127  137 1   
   132  127  138 1   
   133  128  129 ar  
   134  128  130 ar  
   135  129  131 ar  
   136  129  139 1   
   137  130  132 ar  
   138  130  140 1   
   139  131  133 ar  
   140  131  141 1   
   141  132  133 ar  
   142  132  142 1   
   143  133  134 1   
   144  134  143 1   
   145  144  145 1   
   146  144  153 1   
   147  145  146 1   
   148  145  148 1   
   149  145  154 1   
   150  146  147 2   
   151  146  159 1   
   152  148  149 1   
   153  148  155 1   
   154  148  156 1   
   155  149  150 1   
   156  149  157 1   
   157  149  158 1   
   158  150  151 1   
   159  150  152 1   
   160  159  160 1   
   161  159  168 1   
   162  160  161 1   
   163  160  163 1   
   164  160  169 1   
   165  161  162 2   
   166  161  174 1   
   167  163  164 1   
   168  163  170 1   
   169  163  171 1   
   170  164  165 1   
   171  164  172 1   
   172  164  173 1   
   173  165  166 1   
   174  165  167 1   
   175  174  175 1   
   176  174  179 1   
   177  175  176 1   
   178  175  177 1   
   179  175  178 1   
   180  181  182 1   
   181  181  183 1   
   182  184  185 1   
   183  184  186 1   
   184  187  188 1   
   185  187  189 1   
   186  190  191 1   
   187  190  192 1   
   188  193  194 1   
   189  193  195 1   
   190  196  197 1   
   191  196  198 1   
@<TRIPOS>SUBSTRUCTURE
     1 MOL         1 TEMP              0 ****  ****    0 ROOT
