@<TRIPOS>MOLECULE
MOL
  175   173     1     0     0
SMALL
resp


@<TRIPOS>ATOM
      1 C1         -6.5440    8.0510    2.0070 c3        1 MOL     -0.427531
      2 C2         -7.0430    7.2010    0.8340 c         1 MOL      0.728352
      3 O1         -6.7080    7.4460   -0.3240 o         1 MOL     -0.588865
      4 H1         -5.5110    7.7860    2.2330 hc        1 MOL      0.104095
      5 H2         -6.5990    9.1060    1.7400 hc        1 MOL      0.104095
      6 H3         -7.1660    7.8630    2.8820 hc        1 MOL      0.104095
      7 N1         -7.9320    6.2500    1.1300 n         1 MOL     -0.691943
      8 C3         -8.6050    5.3840    0.1320 c3        1 MOL      0.685564
      9 C4         -7.7260    4.1920   -0.2530 c         1 MOL      0.287894
     10 O2         -8.1710    3.0510   -0.5260 o         1 MOL     -0.423821
     11 C5         -9.9570    5.0300    0.6800 c3        1 MOL     -0.486587
     12 C6        -11.0050    4.5110   -0.3930 c         1 MOL      0.664042
     13 O3        -10.7930    4.6230   -1.6170 o         1 MOL     -0.696292
     14 O4        -11.9760    3.7500   -0.0490 o         1 MOL     -0.696292
     15 H4         -7.9730    5.9570    2.0910 hn        1 MOL      0.305801
     16 H5         -8.7040    6.0240   -0.7440 h1        1 MOL     -0.047506
     17 H6        -10.4030    5.9030    1.1500 hc        1 MOL      0.069795
     18 H7         -9.8320    4.2050    1.3840 hc        1 MOL      0.069795
     19 N2         -6.4380    4.4570   -0.5750 n         1 MOL     -0.463542
     20 C7         -5.4380    3.5000   -0.9900 c3        1 MOL      0.159491
     21 C8         -4.8080    2.7030    0.1660 c         1 MOL      0.607362
     22 O5         -4.4970    3.2140    1.2130 o         1 MOL     -0.554593
     23 C9         -4.3940    4.3320   -1.7920 c3        1 MOL     -0.365628
     24 H8         -6.0940    5.3960   -0.4170 hn        1 MOL      0.256006
     25 H9         -5.9230    2.7920   -1.6690 h1        1 MOL      0.121109
     26 H10        -3.6560    3.6590   -2.2140 hc        1 MOL      0.103979
     27 H11        -4.8580    4.9130   -2.5880 hc        1 MOL      0.103979
     28 H12        -3.9030    5.0350   -1.1250 hc        1 MOL      0.103979
     29 N3         -4.6850    1.3450    0.0640 n         1 MOL     -0.454408
     30 C10        -5.2620    0.4150   -0.9620 c3        1 MOL     -0.048225
     31 C11        -5.6820   -0.9580   -0.4040 c         1 MOL      0.728289
     32 O6         -5.2560   -1.4080    0.6690 o         1 MOL     -0.599546
     33 C12        -4.3370    0.2620   -2.1730 c3        1 MOL     -0.256662
     34 C13        -2.8970   -0.1590   -1.8860 c         1 MOL      0.825194
     35 O7         -2.6110   -1.2790   -2.3170 o         1 MOL     -0.758570
     36 O8         -2.0320    0.5280   -1.3510 o         1 MOL     -0.758570
     37 H13        -4.2230    0.8410    0.8050 hn        1 MOL      0.257981
     38 H14        -6.2130    0.9110   -1.1940 h1        1 MOL     -0.007218
     39 H15        -4.2260    1.2700   -2.5680 hc        1 MOL      0.053795
     40 H16        -4.7530   -0.3520   -2.9680 hc        1 MOL      0.053795
     41 N4         -6.4520   -1.6610   -1.1780 n         1 MOL     -0.452877
     42 C14        -7.0080   -2.9690   -0.7330 c3        1 MOL      0.018754
     43 C15        -6.8180   -4.0400   -1.7380 c         1 MOL      0.531724
     44 O9         -7.7740   -4.3660   -2.4710 o         1 MOL     -0.560553
     45 H17        -6.6460   -1.3920   -2.1280 hn        1 MOL      0.333018
     46 H18        -8.0430   -2.7800   -0.4260 h1        1 MOL      0.059952
     47 H19        -6.4440   -3.2700    0.1470 h1        1 MOL      0.059952
     48 N5         -5.6580   -4.7320   -1.8610 n         1 MOL     -0.505928
     49 C16        -4.3100   -4.3870   -1.3820 c3        1 MOL      0.267877
     50 C17        -4.1020   -5.1620   -0.0290 c         1 MOL      0.426413
     51 O10        -4.1270   -6.3680    0.0040 o         1 MOL     -0.517827
     52 C18        -3.2540   -4.7690   -2.4650 c3        1 MOL     -0.238476
     53 C19        -1.8210   -4.4230   -2.0420 c         1 MOL      0.623186
     54 N6         -0.8880   -4.8500   -2.8460 n         1 MOL     -0.751319
     55 O11        -1.5560   -3.7580   -1.0760 o         1 MOL     -0.533661
     56 H20        -5.7040   -5.4740   -2.5560 hn        1 MOL      0.298687
     57 H21        -4.2480   -3.3310   -1.1050 h1        1 MOL     -0.040302
     58 H22        -3.5800   -4.1970   -3.3280 hc        1 MOL      0.069648
     59 H23        -3.3130   -5.8420   -2.6680 hc        1 MOL      0.069648
     60 H24        -1.1320   -5.5250   -3.5440 hn        1 MOL      0.359381
     61 H25         0.0710   -4.5720   -2.6660 hn        1 MOL      0.359381
     62 N7         -3.9150   -4.3510    1.0530 n         1 MOL     -0.113640
     63 C20        -3.8320   -4.9590    2.4210 c3        1 MOL     -0.381089
     64 C21        -2.3610   -5.4320    2.8110 c         1 MOL      0.599354
     65 O12        -2.2110   -6.2690    3.6680 o         1 MOL     -0.570468
     66 H26        -3.9900   -3.3630    0.8780 hn        1 MOL      0.213818
     67 H27        -4.4690   -5.8210    2.6170 h1        1 MOL      0.146926
     68 H28        -4.0250   -4.1630    3.1370 h1        1 MOL      0.146926
     69 N8         -1.3520   -4.9080    2.1110 n         1 MOL     -0.287624
     70 C22         0.1180   -5.1790    2.0900 c3        1 MOL      0.002437
     71 C23         0.8220   -3.8890    1.8740 c         1 MOL      0.216131
     72 O13         0.2930   -2.9530    1.2330 o         1 MOL     -0.434457
     73 C24         0.5830   -6.2790    1.1240 c3        1 MOL      0.357186
     74 C25        -0.0100   -7.6570    1.5160 c3        1 MOL     -0.520561
     75 O14         0.1410   -6.0370   -0.2170 oh        1 MOL     -0.519323
     76 H29        -1.6720   -4.2510    1.4150 hn        1 MOL      0.167662
     77 H30         0.3270   -5.4860    3.1130 h1        1 MOL      0.046445
     78 H31         1.6580   -6.4000    1.2510 h1        1 MOL      0.011078
     79 H32         0.4980   -5.2080   -0.5580 ho        1 MOL      0.296908
     80 H33        -1.0800   -7.5010    1.3630 hc        1 MOL      0.143874
     81 H34         0.4770   -8.4400    0.9420 hc        1 MOL      0.143874
     82 H35         0.1570   -7.8640    2.5720 hc        1 MOL      0.143874
     83 N9          2.0300   -3.7670    2.4200 n         1 MOL     -0.028762
     84 C26         2.9660   -2.6190    2.3110 c3        1 MOL      0.029204
     85 C27         3.9530   -2.8430    1.1660 c         1 MOL      0.301166
     86 O15         4.8820   -3.6240    1.3400 o         1 MOL     -0.550285
     87 C28         3.5730   -2.3120    3.7150 c3        1 MOL      0.065101
     88 C29         4.4550   -1.0600    3.5900 c3        1 MOL      0.441614
     89 C30         2.5410   -2.0680    4.8610 c3        1 MOL     -0.462918
     90 C31         5.4860   -0.7950    4.6960 c3        1 MOL     -0.305333
     91 H36         2.4580   -4.6080    2.7860 hn        1 MOL      0.170061
     92 H37         2.3840   -1.7610    1.9730 h1        1 MOL      0.031172
     93 H38         4.2710   -3.1230    3.9280 hc        1 MOL     -0.000816
     94 H39         3.8940   -0.1540    3.3640 hc        1 MOL     -0.120369
     95 H40         5.0210   -1.1280    2.6610 hc        1 MOL     -0.120369
     96 H41         2.9460   -1.6730    5.7900 hc        1 MOL      0.110652
     97 H42         1.8020   -1.3550    4.5030 hc        1 MOL      0.110652
     98 H43         2.0220   -3.0160    4.9750 hc        1 MOL      0.110652
     99 H44         5.0460   -0.3680    5.5930 hc        1 MOL      0.052786
    100 H45         5.8330   -1.7620    5.0660 hc        1 MOL      0.052786
    101 H46         6.3060   -0.1690    4.3460 hc        1 MOL      0.052786
    102 N10         3.7880   -2.1250    0.0670 n         1 MOL     -0.114183
    103 C32         4.5070   -2.3290   -1.2010 c3        1 MOL      0.287815
    104 C33         5.5410   -1.2850   -1.6660 c         1 MOL      0.394846
    105 O16         5.8800   -1.3050   -2.8670 o         1 MOL     -0.544119
    106 C34         3.4850   -2.6060   -2.3150 c3        1 MOL     -0.185228
    107 C35         2.4270   -3.6100   -1.8700 c         1 MOL      0.641405
    108 O17         2.7560   -4.8050   -1.8040 o         1 MOL     -0.654365
    109 O18         1.3360   -3.1460   -1.5330 o         1 MOL     -0.654365
    110 H47         2.9920   -1.5190   -0.0560 hn        1 MOL      0.086998
    111 H48         5.0820   -3.2500   -1.0970 h1        1 MOL      0.021677
    112 H49         4.0140   -3.0170   -3.1800 hc        1 MOL      0.022713
    113 H50         2.9280   -1.7120   -2.5850 hc        1 MOL      0.022713
    114 N11         5.9250   -0.4190   -0.7700 n         1 MOL     -0.529935
    115 C36         6.9110    0.6540   -1.1110 c3        1 MOL      0.602419
    116 C37         6.4950    1.9820   -0.4380 c         1 MOL      0.310450
    117 O19         6.1030    1.8780    0.7300 o         1 MOL     -0.506148
    118 C38         8.3240    0.1020   -0.7980 c3        1 MOL     -0.392556
    119 C39         9.3330    1.0570   -1.4450 ca        1 MOL      0.201997
    120 C40         9.9080    2.0590   -0.6740 ca        1 MOL     -0.197223
    121 C41         9.6400    0.9270   -2.7740 ca        1 MOL     -0.197223
    122 C42        10.9330    2.8980   -1.1950 ca        1 MOL     -0.095745
    123 C43        10.6440    1.7710   -3.2910 ca        1 MOL     -0.095745
    124 C44        11.2700    2.8150   -2.5670 ca        1 MOL     -0.186785
    125 H51         5.5160   -0.4890    0.1490 hn        1 MOL      0.254169
    126 H52         6.8290    0.8510   -2.1770 h1        1 MOL     -0.062621
    127 H53         8.4860   -0.9260   -1.1350 hc        1 MOL      0.122740
    128 H54         8.5860    0.1740    0.2570 hc        1 MOL      0.122740
    129 H55         9.6020    2.2750    0.3380 ha        1 MOL      0.132575
    130 H56         9.3510    0.1070   -3.4190 ha        1 MOL      0.132575
    131 H57        11.3130    3.7270   -0.6150 ha        1 MOL      0.104350
    132 H58        10.8490    1.7300   -4.3540 ha        1 MOL      0.104350
    133 H59        11.9990    3.5060   -2.9550 ha        1 MOL      0.130302
    134 N12         6.5640    3.2200   -1.0820 n         1 MOL     -0.278901
    135 C45         6.3780    4.5610   -0.4350 c3        1 MOL      0.044025
    136 C46         5.1310    4.8560    0.3690 c         1 MOL      0.381720
    137 O20         5.0140    5.9500    0.8990 o         1 MOL     -0.525093
    138 C47         6.5250    5.5900   -1.5830 c3        1 MOL     -0.052936
    139 C48         7.5430    4.8610   -2.4840 c3        1 MOL     -0.122876
    140 C49         7.0510    3.4110   -2.4580 c3        1 MOL     -0.019193
    141 H60         7.2310    4.6880    0.2320 h1        1 MOL      0.084223
    142 H61         5.5640    5.6890   -2.0790 hc        1 MOL      0.063742
    143 H62         6.9020    6.5370   -1.2000 hc        1 MOL      0.063742
    144 H63         7.4790    5.2520   -3.5020 hc        1 MOL      0.053912
    145 H64         8.5150    4.9490   -2.0090 hc        1 MOL      0.053912
    146 H65         6.1440    3.3120   -3.0630 h1        1 MOL      0.076780
    147 H66         7.8480    2.7390   -2.7480 h1        1 MOL      0.076780
    148 N13         4.1990    3.9130    0.4970 n         1 MOL     -0.182401
    149 C50         2.9150    4.2370    1.1030 c3        1 MOL     -0.293022
    150 C51         2.9840    4.4270    2.6010 c         1 MOL      0.637792
    151 O21         2.1030    5.0510    3.1840 o         1 MOL     -0.541424
    152 C52         1.9000    3.0560    0.6770 c3        1 MOL     -0.080051
    153 C53         2.2110    1.7020    1.3710 c3        1 MOL     -0.168527
    154 C54         1.3440    0.6630    0.6260 c         1 MOL      0.641217
    155 O22         1.8070    0.0440   -0.3480 o         1 MOL     -0.683105
    156 O23         0.2610    0.2910    1.1310 o         1 MOL     -0.683105
    157 H67         4.4120    2.9670    0.2500 hn        1 MOL      0.221759
    158 H68         2.5710    5.1560    0.6260 h1        1 MOL      0.165426
    159 H69         1.7850    3.0520   -0.4010 hc        1 MOL      0.085935
    160 H70         1.0140    3.4760    1.1380 hc        1 MOL      0.085935
    161 H71         1.8300    1.7760    2.3960 hc        1 MOL      0.075214
    162 H72         3.2700    1.4570    1.3750 hc        1 MOL      0.075214
    163 N14         4.0330    3.9910    3.3420 n         1 MOL     -0.351804
    164 C55         4.3170    4.5170    4.7300 c3        1 MOL     -0.235349
    165 H73         5.0950    3.9110    5.1960 h1        1 MOL      0.111980
    166 H74         4.6530    5.5520    4.6650 h1        1 MOL      0.111980
    167 H75         3.4090    4.4660    5.3320 h1        1 MOL      0.111980
    168 H76         4.8180    3.6710    2.7820 hn        1 MOL      0.266421
    169 Ca1        -0.3440   -1.3710   -0.8200 Ca        1 MOL      1.726964
    170 O24        -2.3310   -1.4160    1.1680 oh        1 MOL     -0.901705
    171 H77        -2.0750   -0.8730    1.9040 ho        1 MOL      0.431369
    172 H78        -3.2770   -1.4800    1.2280 ho        1 MOL      0.431369
    173 O25         0.2520   -0.4890   -3.2070 oh        1 MOL     -0.901705
    174 H79         0.7960    0.2110   -3.5620 ho        1 MOL      0.431369
    175 H80        -0.2460   -0.8130   -3.9500 ho        1 MOL      0.431369
@<TRIPOS>BOND
     1    1    2 1   
     2    1    4 1   
     3    1    5 1   
     4    1    6 1   
     5    2    3 2   
     6    2    7 1   
     7    7    8 1   
     8    7   15 1   
     9    8    9 1   
    10    8   11 1   
    11    8   16 1   
    12    9   10 2   
    13    9   19 1   
    14   11   12 1   
    15   11   17 1   
    16   11   18 1   
    17   12   13 1   
    18   12   14 1   
    19   19   20 1   
    20   19   24 1   
    21   20   21 1   
    22   20   23 1   
    23   20   25 1   
    24   21   22 2   
    25   21   29 1   
    26   23   26 1   
    27   23   27 1   
    28   23   28 1   
    29   29   30 1   
    30   29   37 1   
    31   30   31 1   
    32   30   33 1   
    33   30   38 1   
    34   31   32 2   
    35   31   41 1   
    36   33   34 1   
    37   33   39 1   
    38   33   40 1   
    39   34   35 1   
    40   34   36 1   
    41   41   42 1   
    42   41   45 1   
    43   42   43 1   
    44   42   46 1   
    45   42   47 1   
    46   43   44 2   
    47   43   48 1   
    48   48   49 1   
    49   48   56 1   
    50   49   50 1   
    51   49   52 1   
    52   49   57 1   
    53   50   51 2   
    54   50   62 1   
    55   52   53 1   
    56   52   58 1   
    57   52   59 1   
    58   53   54 1   
    59   53   55 2   
    60   54   60 1   
    61   54   61 1   
    62   62   63 1   
    63   62   66 1   
    64   63   64 1   
    65   63   67 1   
    66   63   68 1   
    67   64   65 2   
    68   64   69 1   
    69   69   70 1   
    70   69   76 1   
    71   70   71 1   
    72   70   73 1   
    73   70   77 1   
    74   71   72 2   
    75   71   83 1   
    76   73   74 1   
    77   73   75 1   
    78   73   78 1   
    79   74   80 1   
    80   74   81 1   
    81   74   82 1   
    82   75   79 1   
    83   83   84 1   
    84   83   91 1   
    85   84   85 1   
    86   84   87 1   
    87   84   92 1   
    88   85   86 2   
    89   85  102 1   
    90   87   88 1   
    91   87   89 1   
    92   87   93 1   
    93   88   90 1   
    94   88   94 1   
    95   88   95 1   
    96   89   96 1   
    97   89   97 1   
    98   89   98 1   
    99   90   99 1   
   100   90  100 1   
   101   90  101 1   
   102  102  103 1   
   103  102  110 1   
   104  103  104 1   
   105  103  106 1   
   106  103  111 1   
   107  104  105 2   
   108  104  114 1   
   109  106  107 1   
   110  106  112 1   
   111  106  113 1   
   112  107  108 1   
   113  107  109 1   
   114  114  115 1   
   115  114  125 1   
   116  115  116 1   
   117  115  118 1   
   118  115  126 1   
   119  116  117 2   
   120  116  134 1   
   121  118  119 1   
   122  118  127 1   
   123  118  128 1   
   124  119  120 ar  
   125  119  121 ar  
   126  120  122 ar  
   127  120  129 1   
   128  121  123 ar  
   129  121  130 1   
   130  122  124 ar  
   131  122  131 1   
   132  123  124 ar  
   133  123  132 1   
   134  124  133 1   
   135  134  135 1   
   136  134  140 1   
   137  135  136 1   
   138  135  138 1   
   139  135  141 1   
   140  136  137 2   
   141  136  148 1   
   142  138  139 1   
   143  138  142 1   
   144  138  143 1   
   145  139  140 1   
   146  139  144 1   
   147  139  145 1   
   148  140  146 1   
   149  140  147 1   
   150  148  149 1   
   151  148  157 1   
   152  149  150 1   
   153  149  152 1   
   154  149  158 1   
   155  150  151 2   
   156  150  163 1   
   157  152  153 1   
   158  152  159 1   
   159  152  160 1   
   160  153  154 1   
   161  153  161 1   
   162  153  162 1   
   163  154  155 1   
   164  154  156 1   
   165  163  164 1   
   166  163  168 1   
   167  164  165 1   
   168  164  166 1   
   169  164  167 1   
   170  170  171 1   
   171  170  172 1   
   172  173  174 1   
   173  173  175 1   
@<TRIPOS>SUBSTRUCTURE
     1 MOL         1 TEMP              0 ****  ****    0 ROOT
