@<TRIPOS>MOLECULE
MOL
  178   175     1     0     0
SMALL
resp


@<TRIPOS>ATOM
      1 C1         -6.0580    7.7510    1.6420 c3        1 MOL     -0.394885
      2 C2         -7.0740    7.0140    0.8470 c         1 MOL      0.697104
      3 O1         -7.1970    7.3490   -0.3450 o         1 MOL     -0.562929
      4 H1         -5.8520    7.2060    2.5630 hc        1 MOL      0.092701
      5 H2         -5.1390    7.8420    1.0620 hc        1 MOL      0.092701
      6 H3         -6.4360    8.7430    1.8840 hc        1 MOL      0.092701
      7 N1         -7.9230    6.1290    1.4640 n         1 MOL     -0.595919
      8 C3         -8.7310    5.1790    0.6410 c3        1 MOL      0.206040
      9 C4         -7.8530    4.3400   -0.3330 c         1 MOL      0.470501
     10 O2         -8.2810    4.0280   -1.4440 o         1 MOL     -0.495511
     11 C5         -9.6170    4.4000    1.5640 c3        1 MOL     -0.322862
     12 C6        -10.5580    3.4490    0.7640 c         1 MOL      0.741183
     13 O3        -10.1570    2.2930    0.4590 o         1 MOL     -0.726194
     14 O4        -11.7070    3.8110    0.4470 o         1 MOL     -0.726194
     15 H4         -7.6100    5.9130    2.3960 hn        1 MOL      0.304427
     16 H5         -9.2940    5.7390   -0.1100 h1        1 MOL      0.075944
     17 H6        -10.2480    5.0980    2.1170 hc        1 MOL      0.043019
     18 H7         -9.1020    3.8080    2.3230 hc        1 MOL      0.043019
     19 N2         -6.6390    4.0380    0.0730 n         1 MOL     -0.533791
     20 C7         -5.6010    3.3380   -0.7980 c3        1 MOL      0.222216
     21 C8         -4.6230    2.4810    0.0170 c         1 MOL      0.391133
     22 O5         -3.9040    2.9610    0.8430 o         1 MOL     -0.570819
     23 C9         -4.8000    4.4220   -1.6620 c3        1 MOL     -0.310592
     24 H8         -6.2740    4.4010    0.9430 hn        1 MOL      0.305481
     25 H9         -6.1290    2.7360   -1.5390 h1        1 MOL      0.069751
     26 H10        -5.4210    4.9730   -2.3580 hc        1 MOL      0.091883
     27 H11        -4.2630    5.1750   -1.0890 hc        1 MOL      0.091883
     28 H12        -4.0420    3.9540   -2.2990 hc        1 MOL      0.091883
     29 N3         -4.4780    1.1760   -0.2210 n         1 MOL     -0.097595
     30 C10        -5.3870    0.3400   -1.0450 c3        1 MOL     -0.066020
     31 C11        -5.6440   -1.0170   -0.2330 c         1 MOL      0.257252
     32 O6         -4.9310   -1.3280    0.7330 o         1 MOL     -0.418610
     33 C12        -4.7810    0.1060   -2.4280 c3        1 MOL     -0.301779
     34 C13        -3.3820   -0.6050   -2.4930 c         1 MOL      0.743173
     35 O7         -2.7860   -1.0050   -1.4470 o         1 MOL     -0.701485
     36 O8         -2.7700   -0.5700   -3.6000 o         1 MOL     -0.701485
     37 H13        -3.8220    0.6200    0.3110 hn        1 MOL      0.150661
     38 H14        -6.3580    0.8250   -1.1580 h1        1 MOL      0.104766
     39 H15        -4.6030    1.0390   -2.9600 hc        1 MOL      0.076195
     40 H16        -5.4980   -0.5130   -2.9690 hc        1 MOL      0.076195
     41 N4         -6.6380   -1.7800   -0.7440 n         1 MOL     -0.245337
     42 C14        -7.0070   -3.1660   -0.4230 c3        1 MOL      0.014296
     43 C15        -6.8160   -4.2750   -1.4910 c         1 MOL      0.462742
     44 O9         -7.7950   -4.4510   -2.2130 o         1 MOL     -0.528774
     45 H17        -7.1890   -1.3810   -1.4910 hn        1 MOL      0.298439
     46 H18        -8.0570   -3.0450   -0.1400 h1        1 MOL      0.044766
     47 H19        -6.4020   -3.4390    0.4480 h1        1 MOL      0.044766
     48 N5         -5.5940   -4.7830   -1.7320 n         1 MOL     -0.457992
     49 C16        -4.2820   -4.3330   -1.1970 c3        1 MOL      0.169412
     50 C17        -4.0850   -4.8840    0.2120 c         1 MOL      0.470335
     51 O10        -4.1650   -6.0960    0.4400 o         1 MOL     -0.565510
     52 C18        -3.2000   -4.9370   -2.1120 c3        1 MOL     -0.308339
     53 C19        -1.8220   -4.4230   -1.7710 c         1 MOL      0.738636
     54 N6         -0.9510   -4.5560   -2.7430 n         1 MOL     -0.686900
     55 O11        -1.5060   -3.8040   -0.7510 o         1 MOL     -0.831902
     56 H20        -5.6510   -5.6240   -2.2790 hn        1 MOL      0.295518
     57 H21        -4.1420   -3.2490   -1.1850 h1        1 MOL      0.089698
     58 H22        -3.4950   -4.6510   -3.1220 hc        1 MOL      0.098652
     59 H23        -3.1360   -6.0220   -2.0100 hc        1 MOL      0.098652
     60 H24        -1.2370   -5.0610   -3.5660 hn        1 MOL      0.333342
     61 H25        -0.0010   -4.2450   -2.6570 hn        1 MOL      0.333342
     62 N7         -3.7250   -4.0490    1.1770 n         1 MOL     -0.081796
     63 C20        -3.3460   -4.5330    2.4820 c3        1 MOL     -0.480771
     64 C21        -1.9070   -4.9940    2.9030 c         1 MOL      0.643402
     65 O12        -1.7170   -5.4610    4.0220 o         1 MOL     -0.563190
     66 H26        -3.6230   -3.0560    1.0490 hn        1 MOL      0.173624
     67 H27        -3.9430   -5.4310    2.6540 h1        1 MOL      0.155651
     68 H28        -3.7520   -3.7420    3.1060 h1        1 MOL      0.155651
     69 N8         -1.0160   -5.0100    1.8870 n         1 MOL     -0.408097
     70 C22         0.4180   -5.1990    2.0100 c3        1 MOL      0.090243
     71 C23         1.2110   -3.8680    1.8480 c         1 MOL      0.416389
     72 O13         0.7450   -2.9910    1.1470 o         1 MOL     -0.537333
     73 C24         1.0410   -6.2730    1.0520 c3        1 MOL      0.355024
     74 C25         0.5490   -7.7060    1.3380 c3        1 MOL     -0.381338
     75 O14         0.6380   -5.9930   -0.3630 oh        1 MOL     -0.585457
     76 H29        -1.3470   -4.7390    0.9720 hn        1 MOL      0.403974
     77 H30         0.6110   -5.5140    3.0330 h1        1 MOL      0.019825
     78 H31         2.1300   -6.2970    1.1180 h1        1 MOL      0.002816
     79 H32         1.0820   -5.1970   -0.6620 ho        1 MOL      0.360517
     80 H33         1.1430   -8.2010    2.1000 hc        1 MOL      0.099636
     81 H34        -0.4370   -7.5800    1.7870 hc        1 MOL      0.099636
     82 H35         0.4160   -8.2740    0.4170 hc        1 MOL      0.099636
     83 N9          2.4840   -3.7320    2.3970 n         1 MOL     -0.487946
     84 C26         3.4030   -2.5530    2.2080 c3        1 MOL      0.101046
     85 C27         4.1270   -2.7830    0.9360 c         1 MOL      0.456591
     86 O15         4.9360   -3.6890    0.9230 o         1 MOL     -0.594974
     87 C28         4.2540   -2.3260    3.5020 c3        1 MOL     -0.009766
     88 C29         5.2270   -1.1770    3.1200 c3        1 MOL     -0.248213
     89 C30         3.3760   -2.0150    4.6800 c3        1 MOL     -0.151348
     90 C31         4.6200    0.1000    2.4130 c3        1 MOL     -0.186054
     91 H36         2.8560   -4.4710    2.9810 hn        1 MOL      0.264878
     92 H37         2.7810   -1.6630    2.1050 h1        1 MOL      0.199239
     93 H38         4.8430   -3.2040    3.7380 hc        1 MOL      0.046178
     94 H39         6.0620   -1.6120    2.5840 hc        1 MOL      0.078883
     95 H40         5.7150   -0.7180    3.9790 hc        1 MOL      0.078883
     96 H41         2.7310   -2.7600    5.1440 hc        1 MOL      0.047074
     97 H42         3.9590   -1.7300    5.5580 hc        1 MOL      0.047074
     98 H43         2.6410   -1.2520    4.3980 hc        1 MOL      0.047074
     99 H44         5.4370    0.8210    2.3490 hc        1 MOL      0.042366
    100 H45         4.3630   -0.1140    1.3770 hc        1 MOL      0.042366
    101 H46         3.8740    0.5230    3.0830 hc        1 MOL      0.042366
    102 N10         3.7980   -2.0990   -0.1320 n         1 MOL     -0.097242
    103 C32         4.3550   -2.3710   -1.4660 c3        1 MOL     -0.113403
    104 C33         5.4550   -1.3970   -1.8720 c         1 MOL      0.539134
    105 O16         6.2380   -1.5760   -2.8220 o         1 MOL     -0.534767
    106 C34         3.2690   -2.2480   -2.5610 c3        1 MOL     -0.104905
    107 C35         2.0960   -3.1900   -2.4040 c         1 MOL      0.655070
    108 O17         2.1610   -4.2870   -2.9370 o         1 MOL     -0.646484
    109 O18         1.1150   -2.7760   -1.7120 o         1 MOL     -0.646484
    110 H47         3.1990   -1.2930   -0.0470 hn        1 MOL      0.242887
    111 H48         4.6870   -3.4140   -1.5140 h1        1 MOL      0.126350
    112 H49         3.8560   -2.5680   -3.4300 hc        1 MOL      0.009384
    113 H50         2.8840   -1.2330   -2.6470 hc        1 MOL      0.009384
    114 N11         5.6840   -0.2840   -1.1150 n         1 MOL     -0.647021
    115 C36         6.8430    0.5970   -1.1940 c3        1 MOL      0.475089
    116 C37         6.3630    2.0240   -0.8080 c         1 MOL      0.195771
    117 O19         5.9510    2.2670    0.3340 o         1 MOL     -0.412906
    118 C38         7.8990    0.0330   -0.2540 c3        1 MOL     -0.213757
    119 C39         9.1160    0.9390   -0.0390 ca        1 MOL      0.035686
    120 C40         9.2360    1.7440    1.0920 ca        1 MOL     -0.102302
    121 C41        10.0340    1.1240   -1.1180 ca        1 MOL     -0.102302
    122 C42        10.4260    2.4850    1.2350 ca        1 MOL     -0.146344
    123 C43        11.1050    2.0160   -1.0190 ca        1 MOL     -0.146344
    124 C44        11.3160    2.7000    0.1960 ca        1 MOL     -0.100607
    125 H51         5.0700   -0.1300   -0.3290 hn        1 MOL      0.406486
    126 H52         7.2650    0.5480   -2.1960 h1        1 MOL     -0.028606
    127 H53         8.2920   -0.8720   -0.7040 hc        1 MOL      0.076193
    128 H54         7.4100   -0.2180    0.6820 hc        1 MOL      0.076193
    129 H55         8.5780    1.6140    1.9300 ha        1 MOL      0.107124
    130 H56         9.9260    0.5360   -2.0180 ha        1 MOL      0.107124
    131 H57        10.6530    2.8730    2.2150 ha        1 MOL      0.108161
    132 H58        11.8490    2.1810   -1.7980 ha        1 MOL      0.108161
    133 H59        12.1610    3.3730    0.2760 ha        1 MOL      0.102459
    134 N12         6.3770    3.0400   -1.6970 n         1 MOL     -0.092351
    135 C45         6.0690    4.4130   -1.3610 c3        1 MOL      0.019612
    136 C46         4.8220    4.7740   -0.5890 c         1 MOL      0.250265
    137 O20         4.6220    5.8990   -0.1480 o         1 MOL     -0.505837
    138 C47         6.1780    5.2190   -2.6310 c3        1 MOL     -0.013689
    139 C48         7.2180    4.5410   -3.4230 c3        1 MOL     -0.109571
    140 C49         7.0630    3.0590   -2.9910 c3        1 MOL      0.011290
    141 H60         6.9440    4.7080   -0.7720 h1        1 MOL      0.079884
    142 H61         5.2550    5.1700   -3.2090 hc        1 MOL      0.058813
    143 H62         6.3460    6.2740   -2.4070 hc        1 MOL      0.058813
    144 H63         7.0780    4.6670   -4.4930 hc        1 MOL      0.045449
    145 H64         8.2430    4.8090   -3.1580 hc        1 MOL      0.045449
    146 H65         6.4370    2.5290   -3.7000 h1        1 MOL      0.042409
    147 H66         8.0360    2.5810   -2.8990 h1        1 MOL      0.042409
    148 N13         3.8180    3.9360   -0.4770 n         1 MOL     -0.170661
    149 C50         2.6010    4.2370    0.3680 c3        1 MOL     -0.056554
    150 C51         2.8250    4.6210    1.8640 c         1 MOL      0.443826
    151 O21         1.8750    5.2050    2.4460 o         1 MOL     -0.536493
    152 C52         1.6280    3.0640    0.2580 c3        1 MOL     -0.095414
    153 C53         2.2280    1.9930    1.0670 c3        1 MOL     -0.134469
    154 C54         1.6220    0.6730    0.8280 c         1 MOL      0.455281
    155 O22         1.8430    0.0480   -0.2700 o         1 MOL     -0.708198
    156 O23         0.6960    0.2480    1.5180 o         1 MOL     -0.708198
    157 H67         3.8450    3.0600   -0.9880 hn        1 MOL      0.187373
    158 H68         2.0180    5.0530   -0.0540 h1        1 MOL      0.100328
    159 H69         1.4150    2.8270   -0.7890 hc        1 MOL      0.071694
    160 H70         0.7090    3.3460    0.7770 hc        1 MOL      0.071694
    161 H71         2.1340    2.2850    2.1160 hc        1 MOL      0.086251
    162 H72         3.2860    1.9310    0.8380 hc        1 MOL      0.086251
    163 N14         3.9420    4.3510    2.4970 n         1 MOL     -0.144097
    164 C55         4.2660    4.6520    3.8910 c3        1 MOL     -0.118684
    165 H73         4.2950    3.7250    4.4640 h1        1 MOL      0.070046
    166 H74         5.2400    5.1400    3.9420 h1        1 MOL      0.070046
    167 H75         3.5060    5.3130    4.3070 h1        1 MOL      0.070046
    168 H76         4.6450    3.7700    2.0580 hn        1 MOL      0.187760
    169 Ca1        -0.4950   -1.2500   -0.4370 Ca        1 MOL      1.812996
    170 O24        -1.2900    1.3560   -0.0890 oh        1 MOL     -0.824765
    171 H77        -1.9460    2.0390    0.0330 ho        1 MOL      0.406100
    172 H78        -0.7030    1.4530    0.6560 ho        1 MOL      0.406100
    173 O25         0.0770   -0.4420   -2.8380 oh        1 MOL     -0.824765
    174 H79         0.6400   -0.8030   -3.5290 ho        1 MOL      0.406100
    175 H80        -0.1620    0.4370   -3.1660 ho        1 MOL      0.406100
    176 O26        -2.0460   -1.1810    1.6720 oh        1 MOL     -0.824765
    177 H81        -1.6500   -0.5670    2.2920 ho        1 MOL      0.406100
    178 H82        -2.9500   -1.2920    1.9850 ho        1 MOL      0.406100
@<TRIPOS>BOND
     1    1    2 1   
     2    1    4 1   
     3    1    5 1   
     4    1    6 1   
     5    2    3 2   
     6    2    7 1   
     7    7    8 1   
     8    7   15 1   
     9    8    9 1   
    10    8   11 1   
    11    8   16 1   
    12    9   10 2   
    13    9   19 1   
    14   11   12 1   
    15   11   17 1   
    16   11   18 1   
    17   12   13 1   
    18   12   14 1   
    19   19   20 1   
    20   19   24 1   
    21   20   21 1   
    22   20   23 1   
    23   20   25 1   
    24   21   22 2   
    25   21   29 1   
    26   23   26 1   
    27   23   27 1   
    28   23   28 1   
    29   29   30 1   
    30   29   37 1   
    31   30   31 1   
    32   30   33 1   
    33   30   38 1   
    34   31   32 2   
    35   31   41 1   
    36   33   34 1   
    37   33   39 1   
    38   33   40 1   
    39   34   35 1   
    40   34   36 1   
    41   41   42 1   
    42   41   45 1   
    43   42   43 1   
    44   42   46 1   
    45   42   47 1   
    46   43   44 2   
    47   43   48 1   
    48   48   49 1   
    49   48   56 1   
    50   49   50 1   
    51   49   52 1   
    52   49   57 1   
    53   50   51 2   
    54   50   62 1   
    55   52   53 1   
    56   52   58 1   
    57   52   59 1   
    58   53   54 1   
    59   53   55 2   
    60   54   60 1   
    61   54   61 1   
    62   62   63 1   
    63   62   66 1   
    64   63   64 1   
    65   63   67 1   
    66   63   68 1   
    67   64   65 2   
    68   64   69 1   
    69   69   70 1   
    70   69   76 1   
    71   70   71 1   
    72   70   73 1   
    73   70   77 1   
    74   71   72 2   
    75   71   83 1   
    76   73   74 1   
    77   73   75 1   
    78   73   78 1   
    79   74   80 1   
    80   74   81 1   
    81   74   82 1   
    82   75   79 1   
    83   83   84 1   
    84   83   91 1   
    85   84   85 1   
    86   84   87 1   
    87   84   92 1   
    88   85   86 2   
    89   85  102 1   
    90   87   88 1   
    91   87   89 1   
    92   87   93 1   
    93   88   90 1   
    94   88   94 1   
    95   88   95 1   
    96   89   96 1   
    97   89   97 1   
    98   89   98 1   
    99   90   99 1   
   100   90  100 1   
   101   90  101 1   
   102  102  103 1   
   103  102  110 1   
   104  103  104 1   
   105  103  106 1   
   106  103  111 1   
   107  104  105 2   
   108  104  114 1   
   109  106  107 1   
   110  106  112 1   
   111  106  113 1   
   112  107  108 1   
   113  107  109 1   
   114  114  115 1   
   115  114  125 1   
   116  115  116 1   
   117  115  118 1   
   118  115  126 1   
   119  116  117 2   
   120  116  134 1   
   121  118  119 1   
   122  118  127 1   
   123  118  128 1   
   124  119  120 ar  
   125  119  121 ar  
   126  120  122 ar  
   127  120  129 1   
   128  121  123 ar  
   129  121  130 1   
   130  122  124 ar  
   131  122  131 1   
   132  123  124 ar  
   133  123  132 1   
   134  124  133 1   
   135  134  135 1   
   136  134  140 1   
   137  135  136 1   
   138  135  138 1   
   139  135  141 1   
   140  136  137 2   
   141  136  148 1   
   142  138  139 1   
   143  138  142 1   
   144  138  143 1   
   145  139  140 1   
   146  139  144 1   
   147  139  145 1   
   148  140  146 1   
   149  140  147 1   
   150  148  149 1   
   151  148  157 1   
   152  149  150 1   
   153  149  152 1   
   154  149  158 1   
   155  150  151 2   
   156  150  163 1   
   157  152  153 1   
   158  152  159 1   
   159  152  160 1   
   160  153  154 1   
   161  153  161 1   
   162  153  162 1   
   163  154  155 1   
   164  154  156 1   
   165  163  164 1   
   166  163  168 1   
   167  164  165 1   
   168  164  166 1   
   169  164  167 1   
   170  170  171 1   
   171  170  172 1   
   172  173  174 1   
   173  173  175 1   
   174  176  177 1   
   175  176  178 1   
@<TRIPOS>SUBSTRUCTURE
     1 MOL         1 TEMP              0 ****  ****    0 ROOT
