@<TRIPOS>MOLECULE
MOL
  189   185     1     0     0
SMALL
resp


@<TRIPOS>ATOM
      1 C1         -7.0640   -3.3180    3.0360 c3        1 MOL      0.052429
      2 C2         -5.7770   -3.0200    2.1740 c         1 MOL      0.483443
      3 O1         -5.3080   -1.8970    2.3150 o         1 MOL     -0.481051
      4 H1         -7.7300   -3.9760    2.4780 hc        1 MOL     -0.049346
      5 H2         -6.7720   -3.8030    3.9690 hc        1 MOL     -0.049346
      6 H3         -7.5790   -2.3830    3.2570 hc        1 MOL     -0.049346
      7 N1         -5.2240   -3.8690    1.2970 n         1 MOL     -0.535642
      8 C3         -4.0880   -3.6880    0.3800 c3        1 MOL     -0.394420
      9 C4         -2.7200   -3.2380    0.9900 c         1 MOL      0.728713
     10 O2         -2.0110   -2.3810    0.4530 o         1 MOL     -0.582857
     11 C5         -4.6070   -2.6630   -0.8130 c3        1 MOL      0.123800
     12 C6         -5.8750   -3.2190   -1.3160 c         1 MOL      0.331859
     13 O3         -6.8460   -2.4160   -1.4430 o         1 MOL     -0.594966
     14 O4         -5.8350   -4.2910   -1.8930 o         1 MOL     -0.594966
     15 H4         -5.5610   -4.8150    1.2280 hn        1 MOL      0.374317
     16 H5         -3.9100   -4.6370   -0.1420 h1        1 MOL      0.146809
     17 H6         -3.8800   -2.4990   -1.6040 hc        1 MOL      0.089766
     18 H7         -4.9000   -1.7400   -0.3190 hc        1 MOL      0.089766
     19 N2         -2.4070   -3.8100    2.2120 n         1 MOL     -0.424966
     20 C7         -1.1300   -3.7850    2.8850 c3        1 MOL     -0.257715
     21 C8         -0.5230   -5.1790    2.7580 c         1 MOL      0.619346
     22 O5         -1.1910   -6.1420    3.1240 o         1 MOL     -0.606490
     23 C9         -1.3720   -3.3490    4.3420 c3        1 MOL      0.363394
     24 C10        -2.3620   -2.1560    4.5050 c3        1 MOL     -0.082881
     25 C11        -0.0230   -3.0800    4.9530 c3        1 MOL     -0.439814
     26 C12        -2.5600   -1.5980    5.8290 c3        1 MOL     -0.074099
     27 H8         -3.0850   -4.4110    2.6580 hn        1 MOL      0.281809
     28 H9         -0.4810   -3.0650    2.3840 h1        1 MOL      0.163378
     29 H10        -1.8080   -4.1620    4.9250 hc        1 MOL     -0.051787
     30 H11        -3.3490   -2.5200    4.2220 hc        1 MOL      0.079480
     31 H12        -1.9490   -1.3260    3.9330 hc        1 MOL      0.079480
     32 H13         0.6180   -3.8760    4.5980 hc        1 MOL      0.093755
     33 H14         0.3970   -2.0830    4.7950 hc        1 MOL      0.093755
     34 H15        -0.3100   -3.0220    6.0110 hc        1 MOL      0.093755
     35 H16        -1.6090   -1.4200    6.3340 hc        1 MOL      0.008891
     36 H17        -3.0960   -0.6520    5.7720 hc        1 MOL      0.008891
     37 H18        -3.0800   -2.3280    6.4510 hc        1 MOL      0.008891
     38 N3          0.6120   -5.3930    2.0000 n         1 MOL     -0.350729
     39 C13         1.4320   -4.4270    1.2740 c3        1 MOL     -0.118982
     40 C14         1.9440   -5.1550   -0.0170 c         1 MOL      0.567598
     41 O6          2.3930   -6.2480   -0.0190 o         1 MOL     -0.501599
     42 C15         2.6390   -4.0760    2.0720 c3        1 MOL     -0.217309
     43 C16         3.4130   -3.0940    1.1660 c         1 MOL      0.730058
     44 O7          4.4440   -3.4830    0.5980 o         1 MOL     -0.655805
     45 O8          2.9030   -1.9650    1.0790 o         1 MOL     -0.655805
     46 H19         0.7000   -6.3930    1.8200 hn        1 MOL      0.244341
     47 H20         0.8660   -3.5510    0.9360 h1        1 MOL      0.073965
     48 H21         3.2450   -4.9760    2.1730 hc        1 MOL      0.048133
     49 H22         2.4100   -3.6850    3.0660 hc        1 MOL      0.048133
     50 N4          2.0440   -4.3780   -1.1140 n         1 MOL     -0.391930
     51 C17         2.3400   -4.9740   -2.4500 c3        1 MOL     -0.128877
     52 C18         3.6670   -4.5570   -3.1800 c         1 MOL      0.554303
     53 O9          3.8930   -4.9770   -4.3410 o         1 MOL     -0.598255
     54 H23         1.7510   -3.4110   -1.0630 hn        1 MOL      0.324377
     55 H24         1.5730   -4.6070   -3.1310 h1        1 MOL      0.094120
     56 H25         2.2300   -6.0530   -2.3280 h1        1 MOL      0.094120
     57 N5          4.5080   -3.7070   -2.5720 n         1 MOL     -0.367251
     58 C19         5.7300   -3.0880   -3.2200 c3        1 MOL      0.072126
     59 C20         6.8730   -2.9360   -2.1920 c         1 MOL      0.274259
     60 O10         8.0770   -3.0750   -2.6000 o         1 MOL     -0.559063
     61 C21         5.4890   -1.7100   -3.8830 c3        1 MOL      0.063484
     62 C22         4.3760   -0.9280   -3.2170 c         1 MOL      0.588744
     63 O11         4.6850   -0.0760   -2.2750 o         1 MOL     -0.616226
     64 O12         3.2000   -1.0210   -3.6190 o         1 MOL     -0.616226
     65 H26         4.3130   -3.5150   -1.5990 hn        1 MOL      0.245916
     66 H27         6.1470   -3.6970   -4.0280 h1        1 MOL      0.071565
     67 H28         5.2840   -1.7700   -4.9570 hc        1 MOL     -0.021776
     68 H29         6.4190   -1.1610   -3.7750 hc        1 MOL     -0.021776
     69 N6          6.5670   -2.5360   -0.9510 n         1 MOL      0.017086
     70 C23         7.5540   -2.2930    0.1380 c3        1 MOL     -0.320698
     71 C24         7.9900   -0.8290    0.1810 c         1 MOL      0.661238
     72 O13         8.6520   -0.4890    1.1390 o         1 MOL     -0.606773
     73 H30         5.5880   -2.5410   -0.7210 hn        1 MOL      0.144615
     74 H31         8.4730   -2.8820    0.0690 h1        1 MOL      0.130024
     75 H32         7.0110   -2.5040    1.0660 h1        1 MOL      0.130024
     76 N7          7.5360   -0.0410   -0.8050 n         1 MOL     -0.311185
     77 C25         7.6840    1.4490   -1.0100 c3        1 MOL     -0.137678
     78 C26         7.5240    2.3800    0.2550 c         1 MOL      0.470757
     79 O14         7.9080    3.5540    0.2070 o         1 MOL     -0.522707
     80 C27         8.8700    1.7640   -1.9590 c3        1 MOL      0.252974
     81 C28         8.7580    1.0220   -3.2970 c3        1 MOL     -0.224991
     82 C29         9.9420    1.4780   -4.1990 c         1 MOL      0.597508
     83 N8         11.0480    0.7430   -4.2170 n         1 MOL     -0.729453
     84 O15        10.0080    2.5260   -4.7970 o         1 MOL     -0.558016
     85 H33         6.9990   -0.5060   -1.5150 hn        1 MOL      0.087941
     86 H34         6.8510    1.7960   -1.6290 h1        1 MOL      0.157558
     87 H35         9.8150    1.4880   -1.5040 hc        1 MOL     -0.024701
     88 H36         8.9710    2.8390   -2.1620 hc        1 MOL     -0.024701
     89 H37         7.7480    1.2220   -3.6530 hc        1 MOL      0.073522
     90 H38         8.8570   -0.0620   -3.1620 hc        1 MOL      0.073522
     91 H39        11.2330   -0.1360   -3.7610 hn        1 MOL      0.325243
     92 H40        11.7770    1.0570   -4.8450 hn        1 MOL      0.325243
     93 N9          6.7900    1.9240    1.3290 n         1 MOL     -0.368986
     94 C30         6.5730    2.6290    2.6500 c3        1 MOL      0.073401
     95 C31         5.1090    2.8890    3.0130 c         1 MOL      0.415439
     96 O16         4.8150    3.7600    3.8790 o         1 MOL     -0.580715
     97 C32         7.2500    1.9060    3.8360 c3        1 MOL      0.383137
     98 C33         6.7640    0.4460    4.0220 c3        1 MOL     -0.286822
     99 C34         8.8390    2.0640    3.8670 c3        1 MOL     -0.286822
    100 H41         6.3440    1.0240    1.1950 hn        1 MOL      0.301494
    101 H42         7.1100    3.5790    2.6790 h1        1 MOL      0.058335
    102 H43         6.9680    2.4700    4.7360 hc        1 MOL     -0.078277
    103 H44         7.0660   -0.1700    3.1730 hc        1 MOL      0.051088
    104 H45         7.1230   -0.0230    4.9340 hc        1 MOL      0.051088
    105 H46         5.6750    0.3830    4.0680 hc        1 MOL      0.051088
    106 H47         9.1930    1.5940    2.9540 hc        1 MOL      0.051088
    107 H48         9.0670    3.1280    3.9490 hc        1 MOL      0.051088
    108 H49         9.1780    1.5720    4.7770 hc        1 MOL      0.051088
    109 N10         4.2380    2.2020    2.3720 n         1 MOL     -0.385350
    110 C35         2.8360    2.1710    2.6140 c3        1 MOL      0.440989
    111 C36         2.0580    2.3610    1.3150 c         1 MOL      0.434874
    112 O17         2.6090    2.4350    0.1840 o         1 MOL     -0.519291
    113 C37         2.5100    0.8630    3.2670 c3        1 MOL     -0.156585
    114 C38         1.0480    0.4200    3.2130 c         1 MOL      0.415734
    115 N11         0.7670   -0.6010    2.5090 n         1 MOL     -0.571324
    116 O18         0.1560    0.9570    3.8320 o         1 MOL     -0.539388
    117 H50         4.6060    1.6300    1.6210 hn        1 MOL      0.186879
    118 H51         2.4920    2.9460    3.2990 h1        1 MOL     -0.009548
    119 H52         2.8900    1.0140    4.2790 hc        1 MOL      0.049587
    120 H53         3.1690    0.1300    2.7880 hc        1 MOL      0.049587
    121 H54         1.4370   -1.0450    1.8990 hn        1 MOL      0.317134
    122 H55        -0.1220   -1.0530    2.6730 hn        1 MOL      0.317134
    123 N12         0.7290    2.5260    1.3630 n         1 MOL     -0.562292
    124 C39        -0.1920    2.5880    0.2510 c3        1 MOL      0.317766
    125 C40        -1.3270    3.5380    0.4520 c         1 MOL      0.378907
    126 O19        -1.9930    3.5100    1.4440 o         1 MOL     -0.510995
    127 C41        -0.8470    1.2040    0.0240 c3        1 MOL     -0.023436
    128 C42        -1.8270    1.0950   -1.1550 ca        1 MOL      0.078433
    129 C43        -1.3860    1.6520   -2.3850 ca        1 MOL     -0.242832
    130 C44        -3.0360    0.3650   -1.0900 ca        1 MOL     -0.242832
    131 C45        -2.1790    1.5740   -3.5290 ca        1 MOL     -0.075845
    132 C46        -3.8690    0.3180   -2.2270 ca        1 MOL     -0.075845
    133 C47        -3.4150    0.9070   -3.4830 ca        1 MOL      0.172895
    134 O20        -4.1030    0.6810   -4.6190 oh        1 MOL     -0.575444
    135 H56         0.3680    2.2710    2.2780 hn        1 MOL      0.266559
    136 H57         0.3520    2.9010   -0.6450 h1        1 MOL      0.019914
    137 H58        -1.4480    1.0430    0.9170 hc        1 MOL      0.048900
    138 H59        -0.0480    0.4770   -0.0980 hc        1 MOL      0.048900
    139 H60        -0.3960    2.0680   -2.4510 ha        1 MOL      0.139467
    140 H61        -3.2920   -0.1390   -0.1770 ha        1 MOL      0.139467
    141 H62        -1.7900    1.8970   -4.4870 ha        1 MOL      0.115600
    142 H63        -4.7270   -0.3270   -2.3360 ha        1 MOL      0.115600
    143 H64        -5.0140    0.4360   -4.4320 ho        1 MOL      0.465182
    144 N13        -1.6270    4.2830   -0.7010 n         1 MOL     -0.400660
    145 C48        -2.7460    5.2620   -0.7500 c3        1 MOL      0.137488
    146 C49        -3.6550    4.8910   -1.9970 c         1 MOL      0.485370
    147 O21        -3.3150    5.1810   -3.1030 o         1 MOL     -0.577868
    148 C50        -2.1930    6.6880   -0.8760 c3        1 MOL      0.073345
    149 C51        -1.4470    7.2750    0.3140 c3        1 MOL     -0.270287
    150 C52        -1.5880    8.8580    0.3570 c         1 MOL      0.750716
    151 O22        -1.9820    9.4060    1.4090 o         1 MOL     -0.655223
    152 O23        -1.3190    9.5940   -0.6260 o         1 MOL     -0.655223
    153 H65        -1.0270    4.2380   -1.5080 hn        1 MOL      0.276701
    154 H66        -3.3100    5.1240    0.1760 h1        1 MOL      0.096479
    155 H67        -3.0420    7.3320   -1.1200 hc        1 MOL     -0.003876
    156 H68        -1.5190    6.6590   -1.7340 hc        1 MOL     -0.003876
    157 H69        -0.3850    7.0440    0.2200 hc        1 MOL      0.049135
    158 H70        -1.9220    6.9070    1.2210 hc        1 MOL      0.049135
    159 N14        -4.8080    4.2720   -1.8630 n         1 MOL     -0.206995
    160 C53        -5.2490    3.4470   -0.6830 c3        1 MOL     -0.956264
    161 C54        -5.7270    4.3590    0.4880 c         1 MOL      0.688706
    162 O24        -6.2170    5.4460    0.3090 o         1 MOL     -0.546972
    163 C55        -6.3780    2.4970   -1.1170 c3        1 MOL      1.048302
    164 C56        -6.6570    1.3510   -0.1880 c3        1 MOL     -1.315280
    165 C57        -7.8110    0.4660   -0.7180 c         1 MOL      1.082602
    166 O25        -7.9940    0.3970   -1.9690 o         1 MOL     -0.751815
    167 O26        -8.6340   -0.0210    0.0960 o         1 MOL     -0.751815
    168 H71        -5.4620    4.3010   -2.6400 hn        1 MOL      0.236081
    169 H72        -4.4230    2.8220   -0.3430 h1        1 MOL      0.237807
    170 H73        -6.2380    2.0820   -2.1120 hc        1 MOL     -0.114715
    171 H74        -7.2930    3.0860   -1.1880 hc        1 MOL     -0.114715
    172 H75        -6.7760    1.7570    0.8180 hc        1 MOL      0.262894
    173 H76        -5.8720    0.6350    0.0520 hc        1 MOL      0.262894
    174 N15        -5.5800    3.8680    1.7070 n         1 MOL     -0.253043
    175 C58        -5.9880    4.4730    2.9530 c3        1 MOL     -0.203011
    176 H77        -6.7120    5.2630    2.7520 h1        1 MOL      0.082612
    177 H78        -6.4440    3.7170    3.5920 h1        1 MOL      0.082612
    178 H79        -5.1180    4.8960    3.4550 h1        1 MOL      0.082612
    179 H80        -5.1970    2.9560    1.9110 hn        1 MOL      0.301068
    180 Ca1        -9.4530   -2.1100   -1.3230 Ca        1 MOL      1.405908
    181 O27       -11.0900   -0.0920   -1.6480 oh        1 MOL     -0.816316
    182 H81       -11.4300    0.4640   -2.3360 ho        1 MOL      0.377814
    183 H82       -11.4630    0.2700   -0.8440 ho        1 MOL      0.377814
    184 O28        -9.4710   -1.6490   -3.9980 oh        1 MOL     -0.816316
    185 H83        -9.4710   -0.8490   -4.5220 ho        1 MOL      0.377814
    186 H84        -8.9410   -2.2680   -4.5040 ho        1 MOL      0.377814
    187 O29       -10.4050   -4.3140   -2.3300 oh        1 MOL     -0.816316
    188 H85       -11.0350   -4.6850   -1.7020 ho        1 MOL      0.377814
    189 H86       -10.3280   -4.9760   -3.0140 ho        1 MOL      0.377814
@<TRIPOS>BOND
     1    1    2 1   
     2    1    4 1   
     3    1    5 1   
     4    1    6 1   
     5    2    3 2   
     6    2    7 1   
     7    7    8 1   
     8    7   15 1   
     9    8    9 1   
    10    8   11 1   
    11    8   16 1   
    12    9   10 2   
    13    9   19 1   
    14   11   12 1   
    15   11   17 1   
    16   11   18 1   
    17   12   13 1   
    18   12   14 1   
    19   19   20 1   
    20   19   27 1   
    21   20   21 1   
    22   20   23 1   
    23   20   28 1   
    24   21   22 2   
    25   21   38 1   
    26   23   24 1   
    27   23   25 1   
    28   23   29 1   
    29   24   26 1   
    30   24   30 1   
    31   24   31 1   
    32   25   32 1   
    33   25   33 1   
    34   25   34 1   
    35   26   35 1   
    36   26   36 1   
    37   26   37 1   
    38   38   39 1   
    39   38   46 1   
    40   39   40 1   
    41   39   42 1   
    42   39   47 1   
    43   40   41 2   
    44   40   50 1   
    45   42   43 1   
    46   42   48 1   
    47   42   49 1   
    48   43   44 1   
    49   43   45 1   
    50   50   51 1   
    51   50   54 1   
    52   51   52 1   
    53   51   55 1   
    54   51   56 1   
    55   52   53 2   
    56   52   57 1   
    57   57   58 1   
    58   57   65 1   
    59   58   59 1   
    60   58   61 1   
    61   58   66 1   
    62   59   60 2   
    63   59   69 1   
    64   61   62 1   
    65   61   67 1   
    66   61   68 1   
    67   62   63 1   
    68   62   64 1   
    69   69   70 1   
    70   69   73 1   
    71   70   71 1   
    72   70   74 1   
    73   70   75 1   
    74   71   72 2   
    75   71   76 1   
    76   76   77 1   
    77   76   85 1   
    78   77   78 1   
    79   77   80 1   
    80   77   86 1   
    81   78   79 2   
    82   78   93 1   
    83   80   81 1   
    84   80   87 1   
    85   80   88 1   
    86   81   82 1   
    87   81   89 1   
    88   81   90 1   
    89   82   83 1   
    90   82   84 2   
    91   83   91 1   
    92   83   92 1   
    93   93   94 1   
    94   93  100 1   
    95   94   95 1   
    96   94   97 1   
    97   94  101 1   
    98   95   96 2   
    99   95  109 1   
   100   97   98 1   
   101   97   99 1   
   102   97  102 1   
   103   98  103 1   
   104   98  104 1   
   105   98  105 1   
   106   99  106 1   
   107   99  107 1   
   108   99  108 1   
   109  109  110 1   
   110  109  117 1   
   111  110  111 1   
   112  110  113 1   
   113  110  118 1   
   114  111  112 2   
   115  111  123 1   
   116  113  114 1   
   117  113  119 1   
   118  113  120 1   
   119  114  115 1   
   120  114  116 2   
   121  115  121 1   
   122  115  122 1   
   123  123  124 1   
   124  123  135 1   
   125  124  125 1   
   126  124  127 1   
   127  124  136 1   
   128  125  126 2   
   129  125  144 1   
   130  127  128 1   
   131  127  137 1   
   132  127  138 1   
   133  128  129 ar  
   134  128  130 ar  
   135  129  131 ar  
   136  129  139 1   
   137  130  132 ar  
   138  130  140 1   
   139  131  133 ar  
   140  131  141 1   
   141  132  133 ar  
   142  132  142 1   
   143  133  134 1   
   144  134  143 1   
   145  144  145 1   
   146  144  153 1   
   147  145  146 1   
   148  145  148 1   
   149  145  154 1   
   150  146  147 2   
   151  146  159 1   
   152  148  149 1   
   153  148  155 1   
   154  148  156 1   
   155  149  150 1   
   156  149  157 1   
   157  149  158 1   
   158  150  151 1   
   159  150  152 1   
   160  159  160 1   
   161  159  168 1   
   162  160  161 1   
   163  160  163 1   
   164  160  169 1   
   165  161  162 2   
   166  161  174 1   
   167  163  164 1   
   168  163  170 1   
   169  163  171 1   
   170  164  165 1   
   171  164  172 1   
   172  164  173 1   
   173  165  166 1   
   174  165  167 1   
   175  174  175 1   
   176  174  179 1   
   177  175  176 1   
   178  175  177 1   
   179  175  178 1   
   180  181  182 1   
   181  181  183 1   
   182  184  185 1   
   183  184  186 1   
   184  187  188 1   
   185  187  189 1   
@<TRIPOS>SUBSTRUCTURE
     1 MOL         1 TEMP              0 ****  ****    0 ROOT
