@<TRIPOS>MOLECULE
MOL
  192   187     1     0     0
SMALL
resp


@<TRIPOS>ATOM
      1 C1        -10.4950   -0.4590   -1.5480 c3        1 MOL     -0.453575
      2 C2         -9.1010   -0.1970   -0.9250 c         1 MOL      0.707246
      3 O1         -8.1520    0.0540   -1.6490 o         1 MOL     -0.612066
      4 H1        -10.8150   -1.4730   -1.3070 hc        1 MOL      0.112688
      5 H2        -11.2140    0.2530   -1.1430 hc        1 MOL      0.112688
      6 H3        -10.4380   -0.3440   -2.6300 hc        1 MOL      0.112688
      7 N1         -9.0180   -0.2070    0.4220 n         1 MOL     -0.522416
      8 C3         -7.6530   -0.3210    1.0760 c3        1 MOL      0.062673
      9 C4         -7.0110   -1.7390    0.9120 c         1 MOL      0.487876
     10 O2         -6.8320   -2.4840    1.8620 o         1 MOL     -0.498564
     11 C5         -7.7600    0.1430    2.5680 c3        1 MOL     -0.007471
     12 C6         -9.0580   -0.0940    3.3400 c         1 MOL      0.604192
     13 O3        -10.0450   -0.6650    2.8000 o         1 MOL     -0.631861
     14 O4         -9.0490    0.3660    4.5170 o         1 MOL     -0.631861
     15 H4         -9.8100   -0.5250    0.9690 hn        1 MOL      0.278881
     16 H5         -6.9210    0.4100    0.7320 h1        1 MOL      0.005149
     17 H6         -7.6290    1.2180    2.7080 hc        1 MOL      0.026683
     18 H7         -6.9160   -0.2790    3.1190 hc        1 MOL      0.026683
     19 N2         -6.6070   -2.1200   -0.2730 n         1 MOL     -0.317058
     20 C7         -6.1100   -3.5240   -0.4850 c3        1 MOL      0.024104
     21 C8         -4.7440   -3.8380    0.1020 c         1 MOL      0.582688
     22 O5         -4.5520   -5.0130    0.3880 o         1 MOL     -0.561811
     23 C9         -6.2440   -3.9850   -1.9780 c3        1 MOL     -0.012637
     24 C10        -7.7590   -3.9720   -2.2930 c3        1 MOL     -0.075146
     25 C11        -7.9960   -4.6420   -3.6100 c3        1 MOL     -0.129792
     26 C12        -9.3240   -4.3830   -4.2190 c3        1 MOL      0.133002
     27 N3         -9.4820   -5.0320   -5.5030 n4        1 MOL     -0.265535
     28 H8         -6.8640   -1.4700   -1.0110 hn        1 MOL      0.154074
     29 H9         -6.8710   -4.1250    0.0170 h1        1 MOL      0.063900
     30 H10        -5.8770   -5.0040   -2.1430 hc        1 MOL      0.036913
     31 H11        -5.6610   -3.2730   -2.5610 hc        1 MOL      0.036913
     32 H12        -8.2580   -2.9990   -2.2420 hc        1 MOL      0.063882
     33 H13        -8.2450   -4.6160   -1.5710 hc        1 MOL      0.063882
     34 H14        -7.9350   -5.7100   -3.3630 hc        1 MOL      0.055828
     35 H15        -7.1310   -4.4110   -4.2320 hc        1 MOL      0.055828
     36 H16        -9.4550   -3.3150   -4.3600 hx        1 MOL      0.049808
     37 H17       -10.0950   -4.7140   -3.5270 hx        1 MOL      0.049808
     38 H18        -9.4650   -6.0410   -5.4110 hn        1 MOL      0.261773
     39 H19       -10.3910   -4.8730   -5.9010 hn        1 MOL      0.261773
     40 H20        -8.7290   -4.7820   -6.1270 hn        1 MOL      0.261773
     41 N4         -3.7330   -2.9420    0.1870 n         1 MOL     -0.447572
     42 C13        -3.6410   -1.6420   -0.5690 c3        1 MOL     -0.034406
     43 C14        -3.7180   -0.4500    0.4230 c         1 MOL      0.328515
     44 O6         -3.3310   -0.5530    1.5880 o         1 MOL     -0.409483
     45 C15        -2.4570   -1.5710   -1.5040 c3        1 MOL     -0.126112
     46 C16        -1.1500   -2.0250   -0.8360 c         1 MOL      0.717643
     47 O7         -0.7810   -1.5000    0.2560 o         1 MOL     -0.691915
     48 O8         -0.4140   -2.8800   -1.4010 o         1 MOL     -0.691915
     49 H21        -2.8570   -3.2250    0.6020 hn        1 MOL      0.345059
     50 H22        -4.4750   -1.5660   -1.2520 h1        1 MOL      0.102021
     51 H23        -2.2410   -0.5240   -1.7340 hc        1 MOL      0.037273
     52 H24        -2.7020   -2.1360   -2.3970 hc        1 MOL      0.037273
     53 N5         -4.1330    0.7220   -0.0680 n         1 MOL     -0.141690
     54 C17        -4.1680    2.0270    0.6340 c3        1 MOL     -0.237023
     55 C18        -2.8230    2.6440    0.9430 c         1 MOL      0.748053
     56 O9         -1.7710    2.1080    0.6050 o         1 MOL     -0.627971
     57 H25        -4.3630    0.7720   -1.0540 hn        1 MOL      0.216436
     58 H26        -4.6490    1.8810    1.5950 h1        1 MOL      0.112374
     59 H27        -4.6220    2.7440   -0.0400 h1        1 MOL      0.112374
     60 N6         -2.9270    3.9020    1.4830 n         1 MOL     -0.680015
     61 C19        -1.8560    4.7290    1.9780 c3        1 MOL      0.230115
     62 C20        -2.1320    6.2460    1.9140 c         1 MOL      0.492143
     63 O10        -3.2870    6.5530    1.6950 o         1 MOL     -0.528184
     64 C21        -1.6400    4.2490    3.4710 c3        1 MOL     -0.363161
     65 C22        -1.1950    2.8060    3.6090 c         1 MOL      0.694698
     66 O11        -0.1480    2.5240    2.9700 o         1 MOL     -0.632194
     67 O12        -1.7990    2.1120    4.4230 o         1 MOL     -0.632194
     68 H28        -3.8660    4.1780    1.7000 hn        1 MOL      0.350296
     69 H29        -0.9500    4.4430    1.4240 h1        1 MOL      0.087954
     70 H30        -2.6080    4.3410    3.9700 hc        1 MOL      0.101804
     71 H31        -0.9960    4.9020    4.0520 hc        1 MOL      0.101804
     72 N7         -1.2450    7.2170    2.1010 n         1 MOL     -0.454944
     73 C23         0.1970    7.1050    2.0550 c3        1 MOL     -0.076514
     74 C24         0.7370    6.4350    0.7410 c         1 MOL      0.532453
     75 O13         0.2340    6.6690   -0.3820 o         1 MOL     -0.518083
     76 H32        -1.6230    8.1070    1.8460 hn        1 MOL      0.325649
     77 H33         0.5890    6.6860    2.9830 h1        1 MOL      0.086859
     78 H34         0.5830    8.1190    2.0940 h1        1 MOL      0.086859
     79 N8          1.6550    5.5800    0.8900 n         1 MOL     -0.508537
     80 C25         2.3430    4.8390   -0.1730 c3        1 MOL     -0.065189
     81 C26         1.4790    3.7250   -0.7400 c         1 MOL      0.817570
     82 O14         0.8780    2.9280    0.0340 o         1 MOL     -0.791410
     83 C27         3.8250    4.4870    0.0470 c3        1 MOL      0.289598
     84 C28         4.6990    4.1790   -1.1240 c3        1 MOL     -0.066020
     85 O15         3.8600    3.3250    0.7640 oh        1 MOL     -0.587929
     86 H35         1.8540    5.2320    1.8120 hn        1 MOL      0.279144
     87 H36         2.4260    5.6380   -0.9110 h1        1 MOL      0.088513
     88 H37         4.3310    5.2430    0.6580 h1        1 MOL      0.039468
     89 H38         3.4400    3.4450    1.6210 ho        1 MOL      0.386686
     90 H39         4.7020    5.1160   -1.6940 hc        1 MOL      0.027822
     91 H40         5.7390    4.0550   -0.8040 hc        1 MOL      0.027822
     92 H41         4.3420    3.3600   -1.7530 hc        1 MOL      0.027822
     93 N9          1.3210    3.6810   -2.0940 n         1 MOL     -0.480359
     94 C29         0.5740    2.6950   -2.8480 c3        1 MOL      0.124529
     95 C30         0.9900    1.2580   -2.3640 c         1 MOL      0.395277
     96 O16         0.4580    0.6630   -1.4400 o         1 MOL     -0.461750
     97 C31        -0.9850    2.9750   -2.7460 c3        1 MOL      0.158833
     98 C32        -1.4650    4.4420   -2.8350 c3        1 MOL     -0.141430
     99 C33        -1.7990    2.0120   -3.6220 c3        1 MOL     -0.405210
    100 C34        -0.9070    5.1510   -4.0590 c3        1 MOL     -0.147696
    101 H42         1.7680    4.4380   -2.5820 hn        1 MOL      0.239090
    102 H43         0.8950    2.8220   -3.8820 h1        1 MOL      0.056037
    103 H44        -1.2270    2.6350   -1.7370 hc        1 MOL      0.017183
    104 H45        -1.0280    5.0670   -2.0590 hc        1 MOL      0.099875
    105 H46        -2.5390    4.6210   -2.7420 hc        1 MOL      0.099875
    106 H47        -1.6730    0.9630   -3.3630 hc        1 MOL      0.100955
    107 H48        -2.8550    2.2810   -3.5930 hc        1 MOL      0.100955
    108 H49        -1.4610    2.1260   -4.6490 hc        1 MOL      0.100955
    109 H50         0.1730    5.0020   -4.1740 hc        1 MOL      0.028841
    110 H51        -1.3110    4.7100   -4.9780 hc        1 MOL      0.028841
    111 H52        -1.0820    6.2200   -3.9530 hc        1 MOL      0.028841
    112 N10         1.8320    0.6290   -3.1470 n         1 MOL     -0.353392
    113 C35         2.4950   -0.7150   -2.8050 c3        1 MOL      0.004195
    114 C36         4.0100   -0.8920   -2.7320 c         1 MOL      0.586634
    115 O17         4.4890   -2.0060   -2.7520 o         1 MOL     -0.551316
    116 C37         1.8700   -1.7500   -3.8150 c3        1 MOL      0.446052
    117 C38         2.0000   -1.3120   -5.2550 c3        1 MOL     -0.271611
    118 O18         0.4920   -1.8620   -3.5430 oh        1 MOL     -0.641459
    119 H53         2.3210    1.1580   -3.8490 hn        1 MOL      0.221578
    120 H54         2.0030   -1.0020   -1.8700 h1        1 MOL      0.045904
    121 H55         2.3520   -2.6940   -3.5770 h1        1 MOL     -0.022633
    122 H56         0.3300   -2.1960   -2.6550 ho        1 MOL      0.393767
    123 H57         1.6440   -0.2910   -5.3200 hc        1 MOL      0.048675
    124 H58         3.0690   -1.3260   -5.4730 hc        1 MOL      0.048675
    125 H59         1.3780   -2.0100   -5.8280 hc        1 MOL      0.048675
    126 N11         4.7780    0.2010   -2.6450 n         1 MOL     -0.267195
    127 C39         6.2590    0.2470   -2.5410 c3        1 MOL     -0.254253
    128 C40         6.7820   -0.2010   -1.1920 c         1 MOL      0.780824
    129 O19         7.2270    0.5940   -0.3550 o         1 MOL     -0.567536
    130 C41         6.8460    1.5860   -2.9440 c3        1 MOL      0.547576
    131 C42         8.3910    1.5600   -3.2910 c3        1 MOL     -0.450392
    132 O20         6.2580    2.0080   -4.1200 oh        1 MOL     -0.649634
    133 H60         4.3940    1.1370   -2.6860 hn        1 MOL      0.174657
    134 H61         6.6710   -0.4610   -3.2640 h1        1 MOL      0.051259
    135 H62         6.6420    2.3210   -2.1670 h1        1 MOL     -0.005673
    136 H63         6.2110    1.2460   -4.7050 ho        1 MOL      0.391885
    137 H64         8.7510    0.7390   -3.9170 hc        1 MOL      0.114419
    138 H65         8.7310    2.5170   -3.6670 hc        1 MOL      0.114419
    139 H66         8.9050    1.4730   -2.3270 hc        1 MOL      0.114419
    140 N12         6.6140   -1.5100   -0.9490 n         1 MOL     -0.874570
    141 C43         6.7480   -2.2280    0.3210 c3        1 MOL      0.407649
    142 C44         5.5400   -1.8940    1.2040 c         1 MOL      0.592176
    143 O21         5.1790   -0.7360    1.3410 o         1 MOL     -0.509953
    144 C45         8.1200   -2.1170    1.0570 c3        1 MOL     -0.687046
    145 C46         9.2150   -2.5160    0.0010 c3        1 MOL     -0.006443
    146 C47        10.5660   -2.6230    0.6620 c3        1 MOL     -0.210377
    147 C48        11.7130   -2.5780   -0.3200 c3        1 MOL     -0.001448
    148 N13        11.9850   -3.9290   -0.9650 n4        1 MOL     -0.211619
    149 H67         6.1750   -1.9310   -1.7570 hn        1 MOL      0.379694
    150 H68         6.6110   -3.3060    0.1890 h1        1 MOL      0.029417
    151 H69         8.2200   -2.8410    1.8650 hc        1 MOL      0.236857
    152 H70         8.3040   -1.1030    1.4170 hc        1 MOL      0.236857
    153 H71         9.2400   -1.6660   -0.6780 hc        1 MOL      0.071090
    154 H72         8.9820   -3.4740   -0.4800 hc        1 MOL      0.071090
    155 H73        10.6380   -3.5420    1.2490 hc        1 MOL      0.126153
    156 H74        10.6950   -1.6860    1.2190 hc        1 MOL      0.126153
    157 H75        12.5720   -2.2520    0.2650 hx        1 MOL      0.094474
    158 H76        11.4780   -1.8890   -1.1280 hx        1 MOL      0.094474
    159 H77        12.6830   -3.8460   -1.6900 hn        1 MOL      0.212902
    160 H78        12.3660   -4.6960   -0.4460 hn        1 MOL      0.212902
    161 H79        11.1140   -4.2270   -1.3730 hn        1 MOL      0.212902
    162 N14         4.8990   -2.9180    1.7870 n         1 MOL     -0.632184
    163 C49         3.6650   -2.7750    2.5510 c3        1 MOL      0.325246
    164 C50         2.3480   -2.5710    1.7770 c         1 MOL      0.312721
    165 O22         1.6140   -1.5700    1.9900 o         1 MOL     -0.568334
    166 C51         3.4100   -3.9210    3.5660 c3        1 MOL      0.085113
    167 C52         4.6130   -4.1580    4.5550 c3        1 MOL     -0.193094
    168 C53         4.2650   -5.3500    5.4300 c         1 MOL      0.644764
    169 O23         4.4050   -6.4650    4.9960 o         1 MOL     -0.604462
    170 O24         3.6330   -5.2080    6.5490 o         1 MOL     -0.604462
    171 H80         5.2810   -3.8490    1.7290 hn        1 MOL      0.321752
    172 H81         3.8380   -1.8950    3.1760 h1        1 MOL      0.067813
    173 H82         3.3480   -4.8580    3.0140 hc        1 MOL      0.027910
    174 H83         2.5380   -3.6590    4.1570 hc        1 MOL      0.027910
    175 H84         4.7810   -3.2340    5.1190 hc        1 MOL     -0.010268
    176 H85         5.4780   -4.4010    3.9410 hc        1 MOL     -0.010268
    177 N15         1.9720   -3.3150    0.7290 n         1 MOL     -0.275228
    178 C54         2.5250   -4.6420    0.2330 c3        1 MOL     -0.145766
    179 H86         1.7830   -5.1320   -0.3980 h1        1 MOL      0.071063
    180 H87         3.4320   -4.4650   -0.3450 h1        1 MOL      0.071063
    181 H88         2.7560   -5.2800    1.0850 h1        1 MOL      0.071063
    182 H89         1.2030   -2.9680    0.1830 hn        1 MOL      0.316914
    183 Ca1         0.3690    0.5560    1.1830 Ca        1 MOL      1.741854
    184 O25         3.1020    0.7700    0.3840 oh        1 MOL     -0.823454
    185 H90         3.8400    0.2410    0.6750 ho        1 MOL      0.381752
    186 H91         3.4160    1.6710    0.4320 ho        1 MOL      0.381752
    187 O26         2.1450    0.7660    3.2880 oh        1 MOL     -0.823454
    188 H92         1.6920    1.4110    3.8350 ho        1 MOL      0.381752
    189 H93         3.0620    1.0300    3.3110 ho        1 MOL      0.381752
    190 O27        -1.2410   -0.2490    3.0780 oh        1 MOL     -0.823454
    191 H94        -2.1340   -0.4240    2.7690 ho        1 MOL      0.381752
    192 H95        -1.3390    0.4410    3.7310 ho        1 MOL      0.381752
@<TRIPOS>BOND
     1    1    2 1   
     2    1    4 1   
     3    1    5 1   
     4    1    6 1   
     5    2    3 2   
     6    2    7 1   
     7    7    8 1   
     8    7   15 1   
     9    8    9 1   
    10    8   11 1   
    11    8   16 1   
    12    9   10 2   
    13    9   19 1   
    14   11   12 1   
    15   11   17 1   
    16   11   18 1   
    17   12   13 1   
    18   12   14 1   
    19   19   20 1   
    20   19   28 1   
    21   20   21 1   
    22   20   23 1   
    23   20   29 1   
    24   21   22 2   
    25   21   41 1   
    26   23   24 1   
    27   23   30 1   
    28   23   31 1   
    29   24   25 1   
    30   24   32 1   
    31   24   33 1   
    32   25   26 1   
    33   25   34 1   
    34   25   35 1   
    35   26   27 1   
    36   26   36 1   
    37   26   37 1   
    38   27   38 1   
    39   27   39 1   
    40   27   40 1   
    41   41   42 1   
    42   41   49 1   
    43   42   43 1   
    44   42   45 1   
    45   42   50 1   
    46   43   44 2   
    47   43   53 1   
    48   45   46 1   
    49   45   51 1   
    50   45   52 1   
    51   46   47 1   
    52   46   48 1   
    53   53   54 1   
    54   53   57 1   
    55   54   55 1   
    56   54   58 1   
    57   54   59 1   
    58   55   56 2   
    59   55   60 1   
    60   60   61 1   
    61   60   68 1   
    62   61   62 1   
    63   61   64 1   
    64   61   69 1   
    65   62   63 2   
    66   62   72 1   
    67   64   65 1   
    68   64   70 1   
    69   64   71 1   
    70   65   66 1   
    71   65   67 1   
    72   72   73 1   
    73   72   76 1   
    74   73   74 1   
    75   73   77 1   
    76   73   78 1   
    77   74   75 2   
    78   74   79 1   
    79   79   80 1   
    80   79   86 1   
    81   80   81 1   
    82   80   83 1   
    83   80   87 1   
    84   81   82 2   
    85   81   93 1   
    86   83   84 1   
    87   83   85 1   
    88   83   88 1   
    89   84   90 1   
    90   84   91 1   
    91   84   92 1   
    92   85   89 1   
    93   93   94 1   
    94   93  101 1   
    95   94   95 1   
    96   94   97 1   
    97   94  102 1   
    98   95   96 2   
    99   95  112 1   
   100   97   98 1   
   101   97   99 1   
   102   97  103 1   
   103   98  100 1   
   104   98  104 1   
   105   98  105 1   
   106   99  106 1   
   107   99  107 1   
   108   99  108 1   
   109  100  109 1   
   110  100  110 1   
   111  100  111 1   
   112  112  113 1   
   113  112  119 1   
   114  113  114 1   
   115  113  116 1   
   116  113  120 1   
   117  114  115 2   
   118  114  126 1   
   119  116  117 1   
   120  116  118 1   
   121  116  121 1   
   122  117  123 1   
   123  117  124 1   
   124  117  125 1   
   125  118  122 1   
   126  126  127 1   
   127  126  133 1   
   128  127  128 1   
   129  127  130 1   
   130  127  134 1   
   131  128  129 2   
   132  128  140 1   
   133  130  131 1   
   134  130  132 1   
   135  130  135 1   
   136  131  137 1   
   137  131  138 1   
   138  131  139 1   
   139  132  136 1   
   140  140  141 1   
   141  140  149 1   
   142  141  142 1   
   143  141  144 1   
   144  141  150 1   
   145  142  143 2   
   146  142  162 1   
   147  144  145 1   
   148  144  151 1   
   149  144  152 1   
   150  145  146 1   
   151  145  153 1   
   152  145  154 1   
   153  146  147 1   
   154  146  155 1   
   155  146  156 1   
   156  147  148 1   
   157  147  157 1   
   158  147  158 1   
   159  148  159 1   
   160  148  160 1   
   161  148  161 1   
   162  162  163 1   
   163  162  171 1   
   164  163  164 1   
   165  163  166 1   
   166  163  172 1   
   167  164  165 2   
   168  164  177 1   
   169  166  167 1   
   170  166  173 1   
   171  166  174 1   
   172  167  168 1   
   173  167  175 1   
   174  167  176 1   
   175  168  169 1   
   176  168  170 1   
   177  177  178 1   
   178  177  182 1   
   179  178  179 1   
   180  178  180 1   
   181  178  181 1   
   182  184  185 1   
   183  184  186 1   
   184  187  188 1   
   185  187  189 1   
   186  190  191 1   
   187  190  192 1   
@<TRIPOS>SUBSTRUCTURE
     1 MOL         1 TEMP              0 ****  ****    0 ROOT
