@<TRIPOS>MOLECULE
MOL
  181   177     1     0     0
SMALL
resp


@<TRIPOS>ATOM
      1 C1          3.2820   -2.8800    3.7620 c3        1 MOL     -0.272080
      2 C2          4.6820   -2.2970    3.3810 c         1 MOL      0.676702
      3 O1          4.7970   -1.1200    3.0740 o         1 MOL     -0.572207
      4 H1          3.4070   -3.6670    4.5050 hc        1 MOL      0.052252
      5 H2          2.6580   -2.0870    4.1740 hc        1 MOL      0.052252
      6 H3          2.8060   -3.2920    2.8730 hc        1 MOL      0.052252
      7 N1          5.6690   -3.1600    3.3720 n         1 MOL     -0.544583
      8 C3          7.0380   -2.7850    3.0970 c3        1 MOL      0.196599
      9 C4          7.2730   -2.8930    1.5080 c         1 MOL      0.652329
     10 O2          6.6990   -3.7350    0.8700 o         1 MOL     -0.602411
     11 C5          7.9190   -3.6290    3.8510 c3        1 MOL     -0.264657
     12 C6          9.3920   -3.2980    3.7940 c         1 MOL      0.732440
     13 O3          9.9490   -2.7570    2.8500 o         1 MOL     -0.739906
     14 O4         10.1170   -3.8160    4.6660 o         1 MOL     -0.739906
     15 H4          5.4120   -4.0670    3.7520 hn        1 MOL      0.300166
     16 H5          7.3110   -1.7490    3.3160 h1        1 MOL      0.017315
     17 H6          7.8230   -4.6770    3.5550 hc        1 MOL      0.029389
     18 H7          7.6180   -3.6610    4.9000 hc        1 MOL      0.029389
     19 N2          7.9400   -1.8820    0.8890 n         1 MOL     -0.442571
     20 C7          7.9730   -1.6230   -0.5610 c3        1 MOL      0.128301
     21 C8          6.5080   -1.2520   -1.0490 c         1 MOL      0.621630
     22 O5          5.8400   -0.3810   -0.4730 o         1 MOL     -0.542303
     23 C9          8.8950   -0.4220   -0.7800 c3        1 MOL     -0.264837
     24 H8          8.1690   -1.0720    1.4280 hn        1 MOL      0.263919
     25 H9          8.3330   -2.4810   -1.1150 h1        1 MOL      0.057187
     26 H10         9.8790   -0.6080   -0.3540 hc        1 MOL      0.071175
     27 H11         9.1360   -0.2400   -1.8290 hc        1 MOL      0.071175
     28 H12         8.4450    0.4710   -0.3360 hc        1 MOL      0.071175
     29 N3          5.9910   -1.9540   -2.0770 n         1 MOL     -0.801472
     30 C10         4.5880   -1.9000   -2.4940 c3        1 MOL      0.575687
     31 C11         4.4090   -0.8850   -3.5960 c         1 MOL      0.484759
     32 O6          3.4150   -1.0620   -4.2880 o         1 MOL     -0.527373
     33 C12         4.1330   -3.3630   -2.8470 c3        1 MOL     -0.455427
     34 C13         2.6190   -3.4810   -2.6110 c         1 MOL      0.827624
     35 O7          2.1170   -2.8100   -1.7320 o         1 MOL     -0.757409
     36 O8          2.0320   -4.3530   -3.2810 o         1 MOL     -0.757409
     37 H13         6.5020   -2.7590   -2.3940 hn        1 MOL      0.303947
     38 H14         4.0200   -1.4640   -1.6770 h1        1 MOL      0.043332
     39 H15         4.6090   -4.0750   -2.1750 hc        1 MOL      0.099986
     40 H16         4.5200   -3.5830   -3.8450 hc        1 MOL      0.099986
     41 N4          5.2400    0.1380   -3.7990 n         1 MOL     -0.543994
     42 C14         5.2830    0.9240   -5.0300 c3        1 MOL      0.085375
     43 C15         4.5660    2.2550   -5.0500 c         1 MOL      0.540765
     44 O9          4.9500    3.1380   -5.7950 o         1 MOL     -0.577854
     45 H17         6.0680    0.1100   -3.2250 hn        1 MOL      0.304648
     46 H18         4.8660    0.2420   -5.7660 h1        1 MOL      0.030840
     47 H19         6.2920    1.1750   -5.3650 h1        1 MOL      0.030840
     48 N5          3.6360    2.3110   -4.1010 n         1 MOL     -0.366790
     49 C16         2.8100    3.4900   -3.7460 c3        1 MOL      0.200931
     50 C17         3.2120    4.1280   -2.4000 c         1 MOL      0.406911
     51 O10         3.6860    3.4150   -1.4560 o         1 MOL     -0.488419
     52 C18         1.3200    3.0310   -3.6280 c3        1 MOL     -0.340617
     53 C19         0.2800    4.0830   -3.4540 c         1 MOL      0.629432
     54 N6         -0.3140    4.1080   -2.2710 n         1 MOL     -0.809434
     55 O11        -0.0200    4.9590   -4.2770 o         1 MOL     -0.593055
     56 H20         3.3270    1.4090   -3.7830 hn        1 MOL      0.221496
     57 H21         2.9590    4.1840   -4.5680 h1        1 MOL      0.016746
     58 H22         1.2440    2.3660   -2.7650 hc        1 MOL      0.136890
     59 H23         1.1190    2.5180   -4.5610 hc        1 MOL      0.136890
     60 H24        -0.0590    3.3950   -1.6090 hn        1 MOL      0.381017
     61 H25        -1.0490    4.7940   -2.1800 hn        1 MOL      0.381017
     62 N7          3.0060    5.4360   -2.3650 n         1 MOL     -0.333231
     63 C20         3.1980    6.3350   -1.2340 c3        1 MOL     -0.108421
     64 C21         1.8820    6.5510   -0.4490 c         1 MOL      0.598291
     65 O12         0.7950    6.7480   -1.0300 o         1 MOL     -0.494285
     66 H26         2.6480    5.8820   -3.2030 hn        1 MOL      0.282898
     67 H27         3.5070    7.2870   -1.6610 h1        1 MOL      0.087524
     68 H28         4.0200    5.8980   -0.6620 h1        1 MOL      0.087524
     69 N8          2.0530    6.8990    0.7970 n         1 MOL     -0.396517
     70 C22         0.9360    7.3620    1.6740 c3        1 MOL     -0.206286
     71 C23        -0.1500    6.3840    1.9810 c         1 MOL      0.489905
     72 O13        -1.2600    6.7730    2.2330 o         1 MOL     -0.545090
     73 C24         1.3970    7.9810    3.0020 c3        1 MOL      0.534712
     74 C25         2.0120    6.8600    3.8320 c3        1 MOL     -0.199746
     75 O14         2.4960    8.8530    2.6950 oh        1 MOL     -0.693655
     76 H29         3.0120    7.0080    1.1240 hn        1 MOL      0.223226
     77 H30         0.4360    8.2250    1.2200 h1        1 MOL      0.118611
     78 H31         0.5270    8.4080    3.4920 h1        1 MOL      0.010537
     79 H32         3.1840    8.3810    2.2280 ho        1 MOL      0.409878
     80 H33         2.8640    7.2170    4.4030 hc        1 MOL      0.033020
     81 H34         1.3390    6.6090    4.6410 hc        1 MOL      0.033020
     82 H35         2.3110    6.0370    3.1760 hc        1 MOL      0.033020
     83 N9          0.1360    5.0970    1.8940 n         1 MOL     -0.232280
     84 C26        -0.7380    3.8670    2.0980 c3        1 MOL     -0.063482
     85 C27        -0.5830    2.7060    1.0600 c         1 MOL      0.526694
     86 O15         0.4060    2.5330    0.3210 o         1 MOL     -0.464591
     87 C28        -0.5780    3.3300    3.5280 c3        1 MOL      0.116545
     88 C29         0.9260    2.9320    3.7290 c3        1 MOL     -0.057595
     89 C30        -1.0980    4.2700    4.5670 c3        1 MOL     -0.293916
     90 C31         1.0680    2.0460    4.9720 c3        1 MOL     -0.074246
     91 H36         1.0420    4.8590    1.5130 hn        1 MOL      0.169552
     92 H37        -1.7690    4.2310    2.0400 h1        1 MOL      0.091296
     93 H38        -1.2410    2.4720    3.6510 hc        1 MOL      0.008204
     94 H39         1.4320    3.8920    3.8440 hc        1 MOL      0.070168
     95 H40         1.2990    2.4410    2.8340 hc        1 MOL      0.070168
     96 H41        -0.5980    5.2290    4.5040 hc        1 MOL      0.071516
     97 H42        -2.1500    4.5110    4.4110 hc        1 MOL      0.071516
     98 H43        -0.9380    3.9340    5.5900 hc        1 MOL      0.071516
     99 H44         0.3990    1.1950    4.8740 hc        1 MOL      0.018927
    100 H45         2.0800    1.6700    5.0870 hc        1 MOL      0.018927
    101 H46         0.8890    2.5640    5.9220 hc        1 MOL      0.018927
    102 N10        -1.5600    1.7930    1.1850 n         1 MOL     -0.688802
    103 C32        -1.7210    0.5820    0.4070 c3        1 MOL      0.341361
    104 C33        -3.1840    0.2770    0.0700 c         1 MOL      0.412245
    105 O16        -3.5920   -0.8330   -0.1090 o         1 MOL     -0.324616
    106 C34        -1.1190   -0.6670    1.0880 c3        1 MOL      0.053952
    107 C35        -1.0120   -1.8340    0.1270 c         1 MOL      0.430999
    108 O17        -0.7550   -1.6260   -1.1090 o         1 MOL     -0.675028
    109 O18        -1.1280   -3.0510    0.5090 o         1 MOL     -0.675028
    110 H47        -2.2090    1.9350    1.9480 hn        1 MOL      0.318826
    111 H48        -1.1230    0.7960   -0.4710 h1        1 MOL      0.029194
    112 H49        -1.7210   -1.0660    1.9070 hc        1 MOL      0.011369
    113 H50        -0.2030   -0.3920    1.6080 hc        1 MOL      0.011369
    114 N11        -4.0040    1.3230   -0.0790 n         1 MOL     -0.547846
    115 C36        -5.3840    1.1310   -0.5490 c3        1 MOL      0.416290
    116 C37        -6.1370    0.1730    0.4360 c         1 MOL      0.133256
    117 O19        -5.8770    0.2240    1.6510 o         1 MOL     -0.483192
    118 C38        -6.0830    2.5090   -0.7200 c3        1 MOL     -0.410445
    119 C39        -7.5620    2.4330   -1.0620 ca        1 MOL      0.204443
    120 C40        -7.9720    2.2990   -2.3710 ca        1 MOL     -0.256503
    121 C41        -8.4880    2.3730   -0.0470 ca        1 MOL     -0.256503
    122 C42        -9.2910    2.3650   -2.7020 ca        1 MOL     -0.023488
    123 C43        -9.8350    2.2940   -0.3430 ca        1 MOL     -0.023488
    124 C44       -10.2560    2.4660   -1.6810 ca        1 MOL     -0.183360
    125 H51        -3.7460    2.2640    0.1690 hn        1 MOL      0.266640
    126 H52        -5.2790    0.5530   -1.4670 h1        1 MOL     -0.029141
    127 H53        -5.6910    2.9550   -1.6260 hc        1 MOL      0.139873
    128 H54        -5.9850    3.1640    0.1450 hc        1 MOL      0.139873
    129 H55        -7.1970    2.3860   -3.1160 ha        1 MOL      0.140204
    130 H56        -8.1770    2.2050    0.9710 ha        1 MOL      0.140204
    131 H57        -9.6050    2.4890   -3.7280 ha        1 MOL      0.090869
    132 H58       -10.5250    2.2400    0.4910 ha        1 MOL      0.090869
    133 H59       -11.3140    2.6150   -1.8620 ha        1 MOL      0.108665
    134 N12        -7.0530   -0.7100   -0.1210 n         1 MOL      0.255810
    135 C45        -8.0070   -1.3100    0.7660 c3        1 MOL     -0.028348
    136 C46        -7.2930   -2.4530    1.5760 c         1 MOL      0.236767
    137 O20        -7.8150   -2.9540    2.6210 o         1 MOL     -0.546284
    138 C47        -9.2070   -1.8620    0.0400 c3        1 MOL      0.044889
    139 C48        -8.6210   -2.0340   -1.4220 c3        1 MOL      0.024479
    140 C49        -7.3700   -1.1120   -1.4690 c3        1 MOL     -0.170409
    141 H60        -8.3990   -0.5740    1.4630 h1        1 MOL      0.059458
    142 H61        -9.6010   -2.8330    0.3200 hc        1 MOL      0.006292
    143 H62       -10.0350   -1.1600   -0.0050 hc        1 MOL      0.006292
    144 H63        -8.2890   -3.0700   -1.5340 hc        1 MOL      0.007278
    145 H64        -9.3960   -1.7460   -2.1290 hc        1 MOL      0.007278
    146 H65        -6.5120   -1.5730   -1.9690 h1        1 MOL      0.054535
    147 H66        -7.6690   -0.2100   -1.9970 h1        1 MOL      0.054535
    148 N13        -6.0350   -2.8450    1.2340 n         1 MOL     -0.047991
    149 C50        -5.1940   -3.9040    1.7930 c3        1 MOL     -0.153271
    150 C51        -4.5140   -3.4600    3.1000 c         1 MOL      0.510892
    151 O21        -3.9490   -4.3320    3.7420 o         1 MOL     -0.572113
    152 C52        -4.1820   -4.3690    0.7540 c3        1 MOL      0.201427
    153 C53        -4.9320   -4.8240   -0.5350 c3        1 MOL     -0.237248
    154 C54        -3.9710   -5.0930   -1.6630 c         1 MOL      0.795407
    155 O22        -4.2610   -5.9530   -2.4450 o         1 MOL     -0.752531
    156 O23        -2.9020   -4.4280   -1.8640 o         1 MOL     -0.752531
    157 H67        -5.5930   -2.3180    0.5000 hn        1 MOL      0.107867
    158 H68        -5.8310   -4.7480    2.0690 h1        1 MOL      0.111462
    159 H69        -3.7460   -5.2680    1.1810 hc        1 MOL     -0.039811
    160 H70        -3.4470   -3.5830    0.5440 hc        1 MOL     -0.039811
    161 H71        -5.6480   -4.0800   -0.9020 hc        1 MOL      0.032698
    162 H72        -5.4570   -5.7560   -0.3230 hc        1 MOL      0.032698
    163 N14        -4.5780   -2.1860    3.5980 n         1 MOL     -0.185874
    164 C55        -4.2380   -1.9360    5.0330 c3        1 MOL     -0.327855
    165 H73        -4.1400   -2.8890    5.5530 h1        1 MOL      0.120816
    166 H74        -3.2960   -1.3910    5.0940 h1        1 MOL      0.120816
    167 H75        -5.0290   -1.3480    5.4970 h1        1 MOL      0.120816
    168 H76        -4.7410   -1.4400    2.9220 hn        1 MOL      0.213932
    169 Ca1        -0.0360   -4.3380   -1.4320 Ca        1 MOL      1.752663
    170 O24        -0.7680   -3.3030   -3.9440 oh        1 MOL     -0.814276
    171 H77        -0.3740   -2.5650   -4.4060 ho        1 MOL      0.402022
    172 H78        -1.2970   -3.7360   -4.6030 ho        1 MOL      0.402022
    173 O25        -0.0870   -6.7830   -2.5650 oh        1 MOL     -0.814276
    174 H79        -0.9640   -7.1560   -2.6080 ho        1 MOL      0.402022
    175 H80         0.4890   -7.5490   -2.4680 ho        1 MOL      0.402022
    176 O26         1.8120   -5.4820    0.0960 oh        1 MOL     -0.814276
    177 H81         2.7340   -5.2620   -0.0470 ho        1 MOL      0.402022
    178 H82         1.7190   -5.5120    1.0510 ho        1 MOL      0.402022
    179 O27        -0.9440   -6.3050    0.5430 oh        1 MOL     -0.814276
    180 H83        -1.3760   -7.0940    0.8650 ho        1 MOL      0.402022
    181 H84        -0.5350   -5.9250    1.3180 ho        1 MOL      0.402022
@<TRIPOS>BOND
     1    1    2 1   
     2    1    4 1   
     3    1    5 1   
     4    1    6 1   
     5    2    3 2   
     6    2    7 1   
     7    7    8 1   
     8    7   15 1   
     9    8    9 1   
    10    8   11 1   
    11    8   16 1   
    12    9   10 2   
    13    9   19 1   
    14   11   12 1   
    15   11   17 1   
    16   11   18 1   
    17   12   13 1   
    18   12   14 1   
    19   19   20 1   
    20   19   24 1   
    21   20   21 1   
    22   20   23 1   
    23   20   25 1   
    24   21   22 2   
    25   21   29 1   
    26   23   26 1   
    27   23   27 1   
    28   23   28 1   
    29   29   30 1   
    30   29   37 1   
    31   30   31 1   
    32   30   33 1   
    33   30   38 1   
    34   31   32 2   
    35   31   41 1   
    36   33   34 1   
    37   33   39 1   
    38   33   40 1   
    39   34   35 1   
    40   34   36 1   
    41   41   42 1   
    42   41   45 1   
    43   42   43 1   
    44   42   46 1   
    45   42   47 1   
    46   43   44 2   
    47   43   48 1   
    48   48   49 1   
    49   48   56 1   
    50   49   50 1   
    51   49   52 1   
    52   49   57 1   
    53   50   51 2   
    54   50   62 1   
    55   52   53 1   
    56   52   58 1   
    57   52   59 1   
    58   53   54 1   
    59   53   55 2   
    60   54   60 1   
    61   54   61 1   
    62   62   63 1   
    63   62   66 1   
    64   63   64 1   
    65   63   67 1   
    66   63   68 1   
    67   64   65 2   
    68   64   69 1   
    69   69   70 1   
    70   69   76 1   
    71   70   71 1   
    72   70   73 1   
    73   70   77 1   
    74   71   72 2   
    75   71   83 1   
    76   73   74 1   
    77   73   75 1   
    78   73   78 1   
    79   74   80 1   
    80   74   81 1   
    81   74   82 1   
    82   75   79 1   
    83   83   84 1   
    84   83   91 1   
    85   84   85 1   
    86   84   87 1   
    87   84   92 1   
    88   85   86 2   
    89   85  102 1   
    90   87   88 1   
    91   87   89 1   
    92   87   93 1   
    93   88   90 1   
    94   88   94 1   
    95   88   95 1   
    96   89   96 1   
    97   89   97 1   
    98   89   98 1   
    99   90   99 1   
   100   90  100 1   
   101   90  101 1   
   102  102  103 1   
   103  102  110 1   
   104  103  104 1   
   105  103  106 1   
   106  103  111 1   
   107  104  105 2   
   108  104  114 1   
   109  106  107 1   
   110  106  112 1   
   111  106  113 1   
   112  107  108 1   
   113  107  109 1   
   114  114  115 1   
   115  114  125 1   
   116  115  116 1   
   117  115  118 1   
   118  115  126 1   
   119  116  117 2   
   120  116  134 1   
   121  118  119 1   
   122  118  127 1   
   123  118  128 1   
   124  119  120 ar  
   125  119  121 ar  
   126  120  122 ar  
   127  120  129 1   
   128  121  123 ar  
   129  121  130 1   
   130  122  124 ar  
   131  122  131 1   
   132  123  124 ar  
   133  123  132 1   
   134  124  133 1   
   135  134  135 1   
   136  134  140 1   
   137  135  136 1   
   138  135  138 1   
   139  135  141 1   
   140  136  137 2   
   141  136  148 1   
   142  138  139 1   
   143  138  142 1   
   144  138  143 1   
   145  139  140 1   
   146  139  144 1   
   147  139  145 1   
   148  140  146 1   
   149  140  147 1   
   150  148  149 1   
   151  148  157 1   
   152  149  150 1   
   153  149  152 1   
   154  149  158 1   
   155  150  151 2   
   156  150  163 1   
   157  152  153 1   
   158  152  159 1   
   159  152  160 1   
   160  153  154 1   
   161  153  161 1   
   162  153  162 1   
   163  154  155 1   
   164  154  156 1   
   165  163  164 1   
   166  163  168 1   
   167  164  165 1   
   168  164  166 1   
   169  164  167 1   
   170  170  171 1   
   171  170  172 1   
   172  173  174 1   
   173  173  175 1   
   174  176  177 1   
   175  176  178 1   
   176  179  180 1   
   177  179  181 1   
@<TRIPOS>SUBSTRUCTURE
     1 MOL         1 TEMP              0 ****  ****    0 ROOT
