@<TRIPOS>MOLECULE
MOL
  192   187     1     0     0
SMALL
resp


@<TRIPOS>ATOM
      1 C1          3.8660    4.0940   -3.6170 c3        1 MOL     -0.445579
      2 C2          4.7430    3.2590   -2.6300 c         1 MOL      0.813785
      3 O1          4.4000    2.9970   -1.4750 o         1 MOL     -0.567988
      4 H1          3.3390    3.4210   -4.2930 hc        1 MOL      0.113805
      5 H2          3.1410    4.6810   -3.0530 hc        1 MOL      0.113805
      6 H3          4.5040    4.7620   -4.1950 hc        1 MOL      0.113805
      7 N1          5.9910    2.8840   -3.0200 n         1 MOL     -0.689546
      8 C3          6.8540    1.8430   -2.5190 c3        1 MOL      0.315689
      9 C4          5.9320    0.6380   -2.0500 c         1 MOL      0.227842
     10 O2          5.7540    0.4660   -0.8150 o         1 MOL     -0.526475
     11 C5          7.8290    2.2920   -1.3900 c3        1 MOL     -0.111245
     12 C6          7.3620    3.3290   -0.3550 c         1 MOL      0.749718
     13 O3          6.7630    2.9460    0.6720 o         1 MOL     -0.743462
     14 O4          7.6500    4.5410   -0.6600 o         1 MOL     -0.743462
     15 H4          6.3060    3.2440   -3.9140 hn        1 MOL      0.297347
     16 H5          7.4380    1.4820   -3.3670 h1        1 MOL      0.016160
     17 H6          8.7930    2.5880   -1.8010 hc        1 MOL      0.009576
     18 H7          8.1090    1.4300   -0.7870 hc        1 MOL      0.009576
     19 N2          5.3140   -0.0260   -3.0260 n         1 MOL     -0.387334
     20 C7          4.5390   -1.2950   -2.9490 c3        1 MOL      0.050021
     21 C8          5.3500   -2.4800   -2.4860 c         1 MOL      0.367204
     22 O5          5.4580   -3.5030   -3.2110 o         1 MOL     -0.537281
     23 C9          3.1550   -1.1110   -2.3610 c3        1 MOL      0.085396
     24 C10         2.2490   -2.3870   -2.6090 c3        1 MOL     -0.038051
     25 C11         2.5360    0.1410   -3.0230 c3        1 MOL     -0.302276
     26 C12         2.0910   -2.7120   -4.0570 c3        1 MOL     -0.033989
     27 H8          5.4090    0.4490   -3.9190 hn        1 MOL      0.253300
     28 H9          4.3450   -1.4450   -4.0060 h1        1 MOL      0.093889
     29 H10         3.1180   -0.9220   -1.2800 hc        1 MOL     -0.114689
     30 H11         1.2460   -2.3820   -2.1940 hc        1 MOL      0.053112
     31 H12         2.6430   -3.2640   -2.0930 hc        1 MOL      0.053112
     32 H13         3.0060    1.0260   -2.5820 hc        1 MOL      0.063320
     33 H14         2.5280    0.1780   -4.1130 hc        1 MOL      0.063320
     34 H15         1.4720    0.2080   -2.7590 hc        1 MOL      0.063320
     35 H16         3.0670   -2.9560   -4.4810 hc        1 MOL     -0.010322
     36 H17         1.4360   -3.5500   -4.3010 hc        1 MOL     -0.010322
     37 H18         1.7200   -1.8750   -4.6320 hc        1 MOL     -0.010322
     38 N3          6.0780   -2.3720   -1.3670 n         1 MOL     -0.184506
     39 C13         6.8970   -3.4300   -0.8000 c3        1 MOL      0.044578
     40 C14         6.2410   -4.8010   -0.6640 c         1 MOL      0.563775
     41 O6          6.9000   -5.7860   -0.9950 o         1 MOL     -0.594864
     42 C15         7.6030   -2.8330    0.4330 c3        1 MOL     -0.231609
     43 C16         8.3670   -1.5580    0.2550 c         1 MOL      0.808281
     44 O7          9.0360   -1.3660   -0.7500 o         1 MOL     -0.735039
     45 O8          8.2980   -0.7540    1.2130 o         1 MOL     -0.735039
     46 H19         6.0470   -1.5290   -0.8190 hn        1 MOL      0.360344
     47 H20         7.6730   -3.5960   -1.5510 h1        1 MOL      0.030949
     48 H21         8.2430   -3.5950    0.8710 hc        1 MOL      0.049233
     49 H22         6.8400   -2.6280    1.1870 hc        1 MOL      0.049233
     50 N4          5.0100   -4.9230   -0.1810 n         1 MOL     -0.516896
     51 C17         4.1080   -3.9680    0.4740 c3        1 MOL      0.223853
     52 C18         3.1270   -4.6160    1.4460 c         1 MOL      0.442898
     53 O9          2.8220   -5.8620    1.3660 o         1 MOL     -0.590353
     54 H23         4.5990   -5.8200   -0.3670 hn        1 MOL      0.278541
     55 H24         3.5880   -3.4080   -0.3030 h1        1 MOL      0.015849
     56 H25         4.7750   -3.3120    1.0230 h1        1 MOL      0.015849
     57 N5          2.6630   -3.9390    2.4790 n         1 MOL     -0.318619
     58 C19         2.8570   -2.5070    2.8000 c3        1 MOL     -0.013092
     59 C20         2.7060   -1.5270    1.5590 c         1 MOL      0.696534
     60 O10         3.7340   -1.0800    1.0340 o         1 MOL     -0.641152
     61 C21         4.2040   -2.3280    3.5150 c3        1 MOL     -0.377312
     62 C22         4.3290   -2.9360    4.9180 c         1 MOL      0.792028
     63 O11         3.3180   -2.9100    5.6870 o         1 MOL     -0.741776
     64 O12         5.3910   -3.3520    5.3550 o         1 MOL     -0.741776
     65 H26         2.0410   -4.4720    3.0780 hn        1 MOL      0.268260
     66 H27         2.0470   -2.1950    3.4590 h1        1 MOL      0.036478
     67 H28         4.3710   -1.2560    3.6070 hc        1 MOL      0.100395
     68 H29         5.0230   -2.6710    2.8770 hc        1 MOL      0.100395
     69 N6          1.5500   -1.1390    0.9170 n         1 MOL     -0.411398
     70 C23         0.1540   -1.4660    1.3540 c3        1 MOL     -0.141452
     71 C24        -0.4130   -2.6930    0.6870 c         1 MOL      0.484385
     72 O13         0.3170   -3.5020    0.0610 o         1 MOL     -0.502307
     73 H30         1.7710   -0.4500    0.2020 hn        1 MOL      0.369167
     74 H31        -0.3680   -0.5540    1.0650 h1        1 MOL      0.103217
     75 H32         0.1760   -1.5600    2.4390 h1        1 MOL      0.103217
     76 N7         -1.7070   -2.9600    0.7530 n         1 MOL     -0.367869
     77 C25        -2.5360   -3.9580    0.1230 c3        1 MOL     -0.004737
     78 C26        -3.1300   -3.6170   -1.2730 c         1 MOL      0.564029
     79 O14        -3.1060   -4.4910   -2.1440 o         1 MOL     -0.554059
     80 C27        -3.5690   -4.5200    1.1890 c3        1 MOL     -0.034138
     81 C28        -4.6880   -5.3940    0.6010 c3        1 MOL     -0.116400
     82 C29        -5.7030   -4.5330   -0.1630 c         1 MOL      0.607175
     83 N8         -6.3670   -5.0760   -1.1280 n         1 MOL     -0.726152
     84 O15        -5.8840   -3.3780    0.0730 o         1 MOL     -0.416894
     85 H33        -2.1660   -2.4980    1.5210 hn        1 MOL      0.228657
     86 H34        -1.8800   -4.7920   -0.1560 h1        1 MOL      0.106514
     87 H35        -3.9650   -3.6770    1.7520 hc        1 MOL      0.051101
     88 H36        -3.0070   -5.0740    1.9280 hc        1 MOL      0.051101
     89 H37        -5.2690   -5.8260    1.4160 hc        1 MOL      0.028214
     90 H38        -4.3330   -6.2380   -0.0050 hc        1 MOL      0.028214
     91 H39        -6.2230   -6.0410   -1.4060 hn        1 MOL      0.348073
     92 H40        -7.1300   -4.5190   -1.4790 hn        1 MOL      0.348073
     93 N9         -3.3990   -2.3030   -1.5330 n         1 MOL     -0.427131
     94 C30        -3.8360   -1.6600   -2.7950 c3        1 MOL      0.278280
     95 C31        -5.1710   -1.0050   -2.7920 c         1 MOL      0.290199
     96 O16        -5.3860   -0.2480   -3.7440 o         1 MOL     -0.570764
     97 C32        -2.7190   -0.7210   -3.2310 c3        1 MOL      0.069845
     98 C33        -1.4380   -1.4650   -3.5860 c3        1 MOL     -0.179265
     99 C34        -2.3510    0.4870   -2.3590 c3        1 MOL     -0.179265
    100 H41        -3.2450   -1.6480   -0.7770 hn        1 MOL      0.181360
    101 H42        -3.8930   -2.3830   -3.6000 h1        1 MOL      0.030085
    102 H43        -2.9840   -0.3340   -4.2100 hc        1 MOL      0.019858
    103 H44        -1.5610   -2.3220   -4.2370 hc        1 MOL      0.049030
    104 H45        -0.8470   -0.7550   -4.1670 hc        1 MOL      0.049030
    105 H46        -0.9380   -1.8270   -2.6790 hc        1 MOL      0.049030
    106 H47        -1.8310    1.2090   -2.9900 hc        1 MOL      0.049030
    107 H48        -3.3180    0.9090   -2.0980 hc        1 MOL      0.049030
    108 H49        -1.9580    0.3520   -1.3520 hc        1 MOL      0.049030
    109 N10        -6.0500   -1.1880   -1.8360 n         1 MOL      0.008836
    110 C35        -7.2800   -0.3670   -1.7750 c3        1 MOL      0.074144
    111 C36        -7.1860    0.8600   -0.8580 c         1 MOL      0.526341
    112 O17        -8.1000    1.6820   -0.8850 o         1 MOL     -0.573336
    113 C37        -8.4250   -1.2740   -1.3210 c3        1 MOL     -0.379140
    114 C38        -8.6590   -2.4650   -2.2530 c         1 MOL      0.657428
    115 N11        -8.8220   -2.3600   -3.5450 n         1 MOL     -0.784032
    116 O18        -8.6290   -3.6040   -1.7860 o         1 MOL     -0.583257
    117 H50        -5.9020   -1.9950   -1.2580 hn        1 MOL     -0.018344
    118 H51        -7.5810   -0.0530   -2.7700 h1        1 MOL      0.037875
    119 H52        -9.3320   -0.6760   -1.3740 hc        1 MOL      0.136399
    120 H53        -8.2690   -1.6190   -0.3010 hc        1 MOL      0.136399
    121 H54        -8.8590   -1.3940   -3.8400 hn        1 MOL      0.386882
    122 H55        -8.9440   -3.2260   -4.0470 hn        1 MOL      0.386882
    123 N12        -6.1040    1.0610   -0.1240 n         1 MOL     -0.398957
    124 C39        -6.0240    2.1420    0.9230 c3        1 MOL      0.372937
    125 C40        -4.6900    2.9090    0.8130 c         1 MOL      0.207528
    126 O19        -3.7090    2.3160    0.3580 o         1 MOL     -0.381530
    127 C41        -6.0410    1.4520    2.2470 c3        1 MOL     -0.119055
    128 C42        -7.1990    0.4660    2.3780 ca        1 MOL      0.057017
    129 C43        -8.5110    0.9200    2.5430 ca        1 MOL     -0.185285
    130 C44        -6.9850   -0.9480    2.2010 ca        1 MOL     -0.185285
    131 C45        -9.5770    0.0200    2.4760 ca        1 MOL     -0.173307
    132 C46        -7.9990   -1.8670    2.2590 ca        1 MOL     -0.173307
    133 C47        -9.3190   -1.4100    2.4150 ca        1 MOL      0.208470
    134 O20       -10.3440   -2.3300    2.2080 oh        1 MOL     -0.466230
    135 H56        -5.2950    0.5340   -0.4270 hn        1 MOL      0.199059
    136 H57        -6.8410    2.8540    0.8190 h1        1 MOL     -0.002658
    137 H58        -6.2480    2.2040    3.0110 hc        1 MOL      0.049949
    138 H59        -5.1400    0.8610    2.4120 hc        1 MOL      0.049949
    139 H60        -8.6730    1.9790    2.5090 ha        1 MOL      0.124112
    140 H61        -5.9890   -1.3420    2.0660 ha        1 MOL      0.124112
    141 H62       -10.5640    0.3770    2.6900 ha        1 MOL      0.113618
    142 H63        -7.8090   -2.9230    2.1150 ha        1 MOL      0.113618
    143 H64       -11.1620   -1.9070    2.5000 ho        1 MOL      0.344496
    144 N13        -4.7280    4.1580    1.3260 n         1 MOL     -0.491672
    145 C48        -3.6480    5.0300    1.7370 c3        1 MOL      0.189980
    146 C49        -2.4890    5.4220    0.7880 c         1 MOL      0.405645
    147 O21        -1.9040    6.5290    0.8800 o         1 MOL     -0.560040
    148 C50        -3.1000    4.5510    3.1120 c3        1 MOL     -0.110334
    149 C51        -2.5480    3.1060    3.3120 c3        1 MOL     -0.083237
    150 C52        -1.9410    3.1680    4.7220 c         1 MOL      0.668979
    151 O22        -0.7210    3.3700    4.7730 o         1 MOL     -0.720688
    152 O23        -2.6490    2.8590    5.7200 o         1 MOL     -0.720688
    153 H65        -5.6890    4.3920    1.5580 hn        1 MOL      0.323621
    154 H66        -4.0880    6.0040    1.9250 h1        1 MOL      0.014059
    155 H67        -3.9570    4.7550    3.7610 hc        1 MOL      0.038936
    156 H68        -2.3350    5.2450    3.4580 hc        1 MOL      0.038936
    157 H69        -1.7830    2.8920    2.5720 hc        1 MOL      0.027728
    158 H70        -3.3840    2.4120    3.2580 hc        1 MOL      0.027728
    159 N14        -2.0790    4.5970   -0.1800 n         1 MOL     -0.153772
    160 C53        -0.9820    4.8250   -1.1440 c3        1 MOL     -0.375164
    161 C54        -1.3680    5.7870   -2.3700 c         1 MOL      0.565481
    162 O24        -0.5430    6.1380   -3.1970 o         1 MOL     -0.551653
    163 C55        -0.3780    3.5780   -1.5780 c3        1 MOL      0.133665
    164 C56        -0.1120    2.4340   -0.5440 c3        1 MOL      0.460251
    165 C57         1.1740    2.6150    0.1900 c         1 MOL      0.383220
    166 O25         2.0740    1.7480    0.2960 o         1 MOL     -0.619932
    167 O26         1.2880    3.6790    0.8400 o         1 MOL     -0.619932
    168 H71        -2.4800    3.6690   -0.1420 hn        1 MOL      0.142277
    169 H72        -0.2560    5.3800   -0.5400 h1        1 MOL      0.199512
    170 H73         0.4800    3.7240   -2.2320 hc        1 MOL     -0.028322
    171 H74        -1.1260    3.1830   -2.2610 hc        1 MOL     -0.028322
    172 H75        -0.0900    1.5350   -1.1570 hc        1 MOL     -0.123594
    173 H76        -0.9480    2.3520    0.1570 hc        1 MOL     -0.123594
    174 N15        -2.5860    6.1560   -2.4810 n         1 MOL     -0.217710
    175 C58        -3.1080    6.9010   -3.6110 c3        1 MOL     -0.160921
    176 H77        -3.7090    6.2400   -4.2350 h1        1 MOL      0.074014
    177 H78        -3.7280    7.7220   -3.2520 h1        1 MOL      0.074014
    178 H79        -2.2800    7.3000   -4.1980 h1        1 MOL      0.074014
    179 H80        -3.1690    6.0980   -1.6680 hn        1 MOL      0.200639
    180 Ca1         4.4920    1.9330    1.1420 Ca        1 MOL      1.827684
    181 O27         6.3890    0.4200    2.5930 oh        1 MOL     -0.859609
    182 H81         7.1310    0.0080    2.1750 ho        1 MOL      0.412749
    183 H82         6.7110    0.6880    3.4620 ho        1 MOL      0.412749
    184 O28         5.4200    2.9190    3.5300 oh        1 MOL     -0.859609
    185 H83         4.7980    3.3490    4.1150 ho        1 MOL      0.412749
    186 H84         6.2090    2.8100    4.0640 ho        1 MOL      0.412749
    187 O29         4.0790    4.6760    1.3900 oh        1 MOL     -0.859609
    188 H85         3.9590    5.4590    0.8470 ho        1 MOL      0.412749
    189 H86         3.4260    4.7700    2.0860 ho        1 MOL      0.412749
    190 O30         3.0470    0.9510    3.5490 oh        1 MOL     -0.859609
    191 H87         3.2580    0.4960    4.3590 ho        1 MOL      0.412749
    192 H88         2.3470    1.5510    3.7780 ho        1 MOL      0.412749
@<TRIPOS>BOND
     1    1    2 1   
     2    1    4 1   
     3    1    5 1   
     4    1    6 1   
     5    2    3 2   
     6    2    7 1   
     7    7    8 1   
     8    7   15 1   
     9    8    9 1   
    10    8   11 1   
    11    8   16 1   
    12    9   10 2   
    13    9   19 1   
    14   11   12 1   
    15   11   17 1   
    16   11   18 1   
    17   12   13 1   
    18   12   14 1   
    19   19   20 1   
    20   19   27 1   
    21   20   21 1   
    22   20   23 1   
    23   20   28 1   
    24   21   22 2   
    25   21   38 1   
    26   23   24 1   
    27   23   25 1   
    28   23   29 1   
    29   24   26 1   
    30   24   30 1   
    31   24   31 1   
    32   25   32 1   
    33   25   33 1   
    34   25   34 1   
    35   26   35 1   
    36   26   36 1   
    37   26   37 1   
    38   38   39 1   
    39   38   46 1   
    40   39   40 1   
    41   39   42 1   
    42   39   47 1   
    43   40   41 2   
    44   40   50 1   
    45   42   43 1   
    46   42   48 1   
    47   42   49 1   
    48   43   44 1   
    49   43   45 1   
    50   50   51 1   
    51   50   54 1   
    52   51   52 1   
    53   51   55 1   
    54   51   56 1   
    55   52   53 2   
    56   52   57 1   
    57   57   58 1   
    58   57   65 1   
    59   58   59 1   
    60   58   61 1   
    61   58   66 1   
    62   59   60 2   
    63   59   69 1   
    64   61   62 1   
    65   61   67 1   
    66   61   68 1   
    67   62   63 1   
    68   62   64 1   
    69   69   70 1   
    70   69   73 1   
    71   70   71 1   
    72   70   74 1   
    73   70   75 1   
    74   71   72 2   
    75   71   76 1   
    76   76   77 1   
    77   76   85 1   
    78   77   78 1   
    79   77   80 1   
    80   77   86 1   
    81   78   79 2   
    82   78   93 1   
    83   80   81 1   
    84   80   87 1   
    85   80   88 1   
    86   81   82 1   
    87   81   89 1   
    88   81   90 1   
    89   82   83 1   
    90   82   84 2   
    91   83   91 1   
    92   83   92 1   
    93   93   94 1   
    94   93  100 1   
    95   94   95 1   
    96   94   97 1   
    97   94  101 1   
    98   95   96 2   
    99   95  109 1   
   100   97   98 1   
   101   97   99 1   
   102   97  102 1   
   103   98  103 1   
   104   98  104 1   
   105   98  105 1   
   106   99  106 1   
   107   99  107 1   
   108   99  108 1   
   109  109  110 1   
   110  109  117 1   
   111  110  111 1   
   112  110  113 1   
   113  110  118 1   
   114  111  112 2   
   115  111  123 1   
   116  113  114 1   
   117  113  119 1   
   118  113  120 1   
   119  114  115 1   
   120  114  116 2   
   121  115  121 1   
   122  115  122 1   
   123  123  124 1   
   124  123  135 1   
   125  124  125 1   
   126  124  127 1   
   127  124  136 1   
   128  125  126 2   
   129  125  144 1   
   130  127  128 1   
   131  127  137 1   
   132  127  138 1   
   133  128  129 ar  
   134  128  130 ar  
   135  129  131 ar  
   136  129  139 1   
   137  130  132 ar  
   138  130  140 1   
   139  131  133 ar  
   140  131  141 1   
   141  132  133 ar  
   142  132  142 1   
   143  133  134 1   
   144  134  143 1   
   145  144  145 1   
   146  144  153 1   
   147  145  146 1   
   148  145  148 1   
   149  145  154 1   
   150  146  147 2   
   151  146  159 1   
   152  148  149 1   
   153  148  155 1   
   154  148  156 1   
   155  149  150 1   
   156  149  157 1   
   157  149  158 1   
   158  150  151 1   
   159  150  152 1   
   160  159  160 1   
   161  159  168 1   
   162  160  161 1   
   163  160  163 1   
   164  160  169 1   
   165  161  162 2   
   166  161  174 1   
   167  163  164 1   
   168  163  170 1   
   169  163  171 1   
   170  164  165 1   
   171  164  172 1   
   172  164  173 1   
   173  165  166 1   
   174  165  167 1   
   175  174  175 1   
   176  174  179 1   
   177  175  176 1   
   178  175  177 1   
   179  175  178 1   
   180  181  182 1   
   181  181  183 1   
   182  184  185 1   
   183  184  186 1   
   184  187  188 1   
   185  187  189 1   
   186  190  191 1   
   187  190  192 1   
@<TRIPOS>SUBSTRUCTURE
     1 MOL         1 TEMP              0 ****  ****    0 ROOT
