@<TRIPOS>MOLECULE
MOL
  179   176     1     0     0
SMALL
resp


@<TRIPOS>ATOM
      1 C1          2.4180   -3.8570    6.6760 c3        1 MOL     -0.302623
      2 C2          2.1340   -3.7920    5.1500 c         1 MOL      0.759255
      3 O1          1.1670   -4.3680    4.6460 o         1 MOL     -0.604252
      4 H1          1.4950   -4.0850    7.2080 hc        1 MOL      0.076989
      5 H2          3.1540   -4.6360    6.8760 hc        1 MOL      0.076989
      6 H3          2.8040   -2.8960    7.0150 hc        1 MOL      0.076989
      7 N1          2.9810   -3.1450    4.4160 n         1 MOL     -0.576930
      8 C3          2.9610   -2.9030    2.9810 c3        1 MOL     -0.122965
      9 C4          3.2370   -4.1930    2.1300 c         1 MOL      0.820746
     10 O2          3.9480   -5.0810    2.5590 o         1 MOL     -0.558072
     11 C5          3.9240   -1.7800    2.7180 c3        1 MOL      0.172394
     12 C6          3.7380   -1.0130    1.4250 c         1 MOL      0.554745
     13 O3          4.0950    0.1740    1.3500 o         1 MOL     -0.704518
     14 O4          3.2230   -1.6010    0.4480 o         1 MOL     -0.704518
     15 H4          3.7810   -2.7590    4.9030 hn        1 MOL      0.308024
     16 H5          1.9760   -2.5570    2.6680 h1        1 MOL      0.070177
     17 H6          4.9470   -2.1530    2.8340 hc        1 MOL     -0.020101
     18 H7          3.6850   -0.9880    3.4270 hc        1 MOL     -0.020101
     19 N2          2.5680   -4.2970    0.9280 n         1 MOL     -0.811759
     20 C7          2.6610   -5.4090   -0.0280 c3        1 MOL      0.533678
     21 C8          3.8720   -5.1920   -0.9820 c         1 MOL      0.279471
     22 O5          4.6080   -6.1270   -1.2760 o         1 MOL     -0.517093
     23 C9          1.3320   -5.5770   -0.7780 c3        1 MOL     -0.587331
     24 C10         1.3340   -6.8150   -1.7490 c3        1 MOL     -0.047356
     25 C11        -0.0020   -7.0300   -2.5480 c3        1 MOL      0.047895
     26 C12         0.1730   -8.1650   -3.5100 c3        1 MOL      0.119017
     27 N3         -1.0310   -8.5690   -4.2560 n4        1 MOL     -0.260325
     28 H8          2.1290   -3.4530    0.6160 hn        1 MOL      0.375380
     29 H9          2.8990   -6.4050    0.3560 h1        1 MOL      0.022734
     30 H10         1.0090   -4.6410   -1.2370 hc        1 MOL      0.179069
     31 H11         0.5900   -5.8980   -0.0440 hc        1 MOL      0.179069
     32 H12         1.6770   -7.7250   -1.2580 hc        1 MOL      0.066787
     33 H13         2.0200   -6.6920   -2.5870 hc        1 MOL      0.066787
     34 H14        -0.2880   -6.1130   -3.0600 hc        1 MOL      0.017430
     35 H15        -0.8450   -7.3750   -1.9500 hc        1 MOL      0.017430
     36 H16         0.6400   -8.9640   -2.9320 hx        1 MOL      0.031083
     37 H17         0.9150   -7.8440   -4.2430 hx        1 MOL      0.031083
     38 H18        -1.6070   -9.2230   -3.7490 hn        1 MOL      0.250629
     39 H19        -1.4480   -7.8140   -4.7770 hn        1 MOL      0.250629
     40 H20        -0.7030   -9.1500   -5.0150 hn        1 MOL      0.250629
     41 N4          4.1390   -3.8710   -1.2890 n         1 MOL     -0.040501
     42 C13         5.1720   -3.5010   -2.2260 c3        1 MOL     -0.040635
     43 C14         6.3540   -2.7220   -1.5790 c         1 MOL      0.361485
     44 O6          7.4920   -2.7170   -2.1080 o         1 MOL     -0.516439
     45 C15         4.6540   -2.5560   -3.2550 c3        1 MOL     -0.109147
     46 C16         3.7920   -1.4370   -2.6890 c         1 MOL      0.584285
     47 O7          4.2770   -0.3870   -2.2110 o         1 MOL     -0.699952
     48 O8          2.5140   -1.6560   -2.5420 o         1 MOL     -0.699952
     49 H21         3.4470   -3.1550   -1.0770 hn        1 MOL      0.077591
     50 H22         5.5150   -4.3980   -2.7440 h1        1 MOL      0.116804
     51 H23         4.1100   -3.0640   -4.0620 hc        1 MOL      0.060911
     52 H24         5.4500   -2.1090   -3.8540 hc        1 MOL      0.060911
     53 N5          6.1960   -2.0450   -0.4320 n         1 MOL      0.006496
     54 C17         7.1980   -1.2220    0.2930 c3        1 MOL     -0.250822
     55 C18         7.4260    0.2430   -0.1950 c         1 MOL      0.624128
     56 O9          8.4140    0.8380    0.1540 o         1 MOL     -0.572385
     57 H25         5.2870   -2.1240   -0.0010 hn        1 MOL     -0.017593
     58 H26         8.1010   -1.8250    0.2170 h1        1 MOL      0.118263
     59 H27         6.8600   -1.2100    1.3250 h1        1 MOL      0.118263
     60 N6          6.3830    0.8490   -0.8220 n         1 MOL     -0.200321
     61 C19         6.4530    2.1820   -1.4280 c3        1 MOL     -0.080161
     62 C20         5.0760    2.8880   -1.3310 c         1 MOL      0.541261
     63 O10         4.0570    2.3570   -0.9170 o         1 MOL     -0.445719
     64 C21         6.9440    2.1490   -2.8860 c3        1 MOL     -0.485186
     65 C22         8.2780    1.4690   -3.0360 c         1 MOL      0.812775
     66 N7          9.2910    2.2110   -2.8680 n         1 MOL     -0.810692
     67 O11         8.3340    0.3360   -3.4150 o         1 MOL     -0.555033
     68 H28         5.5160    0.3480   -0.9010 hn        1 MOL      0.217453
     69 H29         7.1470    2.8060   -0.8650 h1        1 MOL      0.059733
     70 H30         7.1710    3.1690   -3.1990 hc        1 MOL      0.127689
     71 H31         6.1990    1.6010   -3.4620 hc        1 MOL      0.127689
     72 H32         9.1410    2.9960   -2.2530 hn        1 MOL      0.366026
     73 H33        10.1750    1.7240   -2.7720 hn        1 MOL      0.366026
     74 N8          5.0790    4.1810   -1.6430 n         1 MOL     -0.328562
     75 C23         3.9980    5.1480   -1.7460 c3        1 MOL     -0.294545
     76 C24         3.2160    5.1190   -0.5000 c         1 MOL      0.605336
     77 O12         3.8310    5.1460    0.5950 o         1 MOL     -0.519356
     78 H34         5.9700    4.5650   -1.9450 hn        1 MOL      0.307278
     79 H35         3.3010    4.7760   -2.5030 h1        1 MOL      0.130508
     80 H36         4.3690    6.1650   -1.8700 h1        1 MOL      0.130508
     81 N9          1.9330    4.9960   -0.5560 n         1 MOL     -0.460454
     82 C25         0.9410    4.9090    0.5490 c3        1 MOL      0.030145
     83 C26         0.9340    3.4940    1.1670 c         1 MOL      0.570252
     84 O13         1.3860    2.5700    0.5250 o         1 MOL     -0.545215
     85 C27        -0.4650    5.3820    0.0230 c3        1 MOL     -0.163890
     86 C28        -0.5130    6.8560   -0.4260 ca        1 MOL      0.162541
     87 C29        -0.3260    7.9160    0.4920 ca        1 MOL     -0.238263
     88 C30        -0.9580    7.1700   -1.7230 ca        1 MOL     -0.238263
     89 C31        -0.5580    9.2590    0.1280 ca        1 MOL     -0.190822
     90 C32        -1.3300    8.4630   -2.0630 ca        1 MOL     -0.190822
     91 C33        -1.1770    9.4970   -1.1010 ca        1 MOL      0.297993
     92 O14        -1.7200   10.7060   -1.4140 oh        1 MOL     -0.490827
     93 H37         1.5130    4.9100   -1.4650 hn        1 MOL      0.264678
     94 H38         1.1440    5.6580    1.3190 h1        1 MOL      0.075983
     95 H39        -1.1590    5.1620    0.8260 hc        1 MOL      0.061881
     96 H40        -0.7760    4.8090   -0.8530 hc        1 MOL      0.061881
     97 H41        -0.0120    7.6060    1.4830 ha        1 MOL      0.153236
     98 H42        -1.2670    6.4240   -2.4360 ha        1 MOL      0.153236
     99 H43        -0.2960   10.0380    0.8290 ha        1 MOL      0.147297
    100 H44        -1.7630    8.7350   -3.0150 ha        1 MOL      0.147297
    101 H45        -1.7180   11.3800   -0.7290 ho        1 MOL      0.384975
    102 N10         0.4920    3.2730    2.4260 n         1 MOL     -0.554209
    103 C34         0.2980    1.9410    3.0600 c3        1 MOL      0.059731
    104 C35        -0.0060    0.7480    2.1440 c         1 MOL      0.573034
    105 O15         0.8730    0.1650    1.5960 o         1 MOL     -0.524576
    106 C36         1.6020    1.6990    3.9360 c3        1 MOL      0.238023
    107 C37         1.5990    0.3050    4.6430 c3        1 MOL     -0.067701
    108 C38         2.0410    2.7750    4.9280 c3        1 MOL     -0.330414
    109 C39         0.4390    0.0600    5.6810 c3        1 MOL     -0.254920
    110 H46         0.0190    4.0990    2.7530 hn        1 MOL      0.304285
    111 H47        -0.5480    2.0500    3.7440 h1        1 MOL      0.071142
    112 H48         2.4200    1.6460    3.2100 hc        1 MOL      0.047842
    113 H49         2.6010    0.2230    5.0810 hc        1 MOL      0.048438
    114 H50         1.5220   -0.4780    3.8950 hc        1 MOL      0.048438
    115 H51         2.9470    2.5160    5.4810 hc        1 MOL      0.081737
    116 H52         2.3330    3.7250    4.4770 hc        1 MOL      0.081737
    117 H53         1.2660    2.9180    5.6860 hc        1 MOL      0.081737
    118 H54         0.3640   -0.9980    5.9400 hc        1 MOL      0.058346
    119 H55         0.6660    0.6380    6.5780 hc        1 MOL      0.058346
    120 H56        -0.5530    0.3760    5.3450 hc        1 MOL      0.058346
    121 N11        -1.2660    0.3080    2.0970 n         1 MOL     -0.575002
    122 C40        -1.6840   -1.0450    1.8700 c3        1 MOL     -0.041939
    123 C41        -3.0780   -1.1110    1.2590 c         1 MOL      0.858030
    124 O16        -3.3320   -2.1250    0.6220 o         1 MOL     -0.608279
    125 C42        -1.7470   -1.8290    3.1840 c3        1 MOL      0.144702
    126 O17        -2.5280   -1.1390    4.1490 oh        1 MOL     -0.586202
    127 H57        -1.9840    0.9430    2.4400 hn        1 MOL      0.301216
    128 H58        -0.9450   -1.5740    1.2650 h1        1 MOL      0.113285
    129 H59        -0.7740   -2.1050    3.5850 h1        1 MOL      0.021178
    130 H60        -2.3360   -2.6520    2.7750 h1        1 MOL      0.021178
    131 H61        -2.5960   -1.7710    4.8560 ho        1 MOL      0.418787
    132 N12        -3.9660   -0.0710    1.2970 n         1 MOL     -0.799225
    133 C43        -5.3000   -0.1060    0.6680 c3        1 MOL      0.255423
    134 C44        -5.1490    0.4380   -0.8020 c         1 MOL      0.590884
    135 O18        -4.2950    1.2300   -1.1260 o         1 MOL     -0.580346
    136 C45        -6.2740    0.7750    1.5060 c3        1 MOL     -0.272004
    137 H62        -3.6880    0.7690    1.7900 hn        1 MOL      0.363116
    138 H63        -5.6680   -1.1300    0.6580 h1        1 MOL      0.102170
    139 H64        -5.8660    1.7540    1.7950 hc        1 MOL      0.093870
    140 H65        -7.2310    0.9740    1.0190 hc        1 MOL      0.093870
    141 H66        -6.5180    0.1780    2.3870 hc        1 MOL      0.093870
    142 N13        -6.0790    0.1120   -1.7360 n         1 MOL     -0.626562
    143 C46        -7.3120   -0.6730   -1.3990 c3        1 MOL      0.238545
    144 C47        -8.4890   -0.1250   -2.3050 c         1 MOL      0.579425
    145 O19        -8.3310    0.0870   -3.4970 o         1 MOL     -0.549447
    146 C48        -7.1080   -2.1980   -1.6300 c3        1 MOL     -0.319407
    147 H67        -5.7830    0.3230   -2.6760 hn        1 MOL      0.353466
    148 H68        -7.6200   -0.6130   -0.3530 h1        1 MOL      0.004342
    149 H69        -6.5170   -2.5280   -0.7800 hc        1 MOL      0.092281
    150 H70        -8.0280   -2.7770   -1.7220 hc        1 MOL      0.092281
    151 H71        -6.5470   -2.3410   -2.5560 hc        1 MOL      0.092281
    152 N14        -9.6440    0.2140   -1.7220 n         1 MOL     -0.630834
    153 C49       -10.1630   -0.3110   -0.3580 c3        1 MOL     -0.033904
    154 C50        -9.9760    0.7400    0.7720 c         1 MOL      0.457906
    155 O20        -9.5280    0.3270    1.8550 o         1 MOL     -0.519767
    156 C51       -11.6400   -0.8560   -0.5530 c3        1 MOL     -0.071592
    157 C52       -11.6280   -2.0190   -1.5980 c3        1 MOL     -0.098980
    158 C53       -12.8670   -2.8880   -1.4890 c         1 MOL      0.731963
    159 O21       -12.8470   -3.7700   -0.6850 o         1 MOL     -0.674760
    160 O22       -13.7450   -2.7390   -2.3510 o         1 MOL     -0.674760
    161 H72       -10.3660    0.4220   -2.3930 hn        1 MOL      0.369542
    162 H73        -9.5030   -1.1490   -0.1130 h1        1 MOL      0.115589
    163 H74       -12.3410   -0.0840   -0.8790 hc        1 MOL      0.049472
    164 H75       -12.0110   -1.2130    0.4070 hc        1 MOL      0.049472
    165 H76       -10.7620   -2.6460   -1.4100 hc        1 MOL      0.017327
    166 H77       -11.5190   -1.7170   -2.6400 hc        1 MOL      0.017327
    167 N15       -10.1210    2.0280    0.5560 n         1 MOL     -0.291830
    168 C54        -9.5270    3.0630    1.3260 c3        1 MOL     -0.121654
    169 H78        -8.9230    3.6970    0.6770 h1        1 MOL      0.077679
    170 H79       -10.3080    3.6620    1.7930 h1        1 MOL      0.077679
    171 H80        -8.8940    2.6250    2.0970 h1        1 MOL      0.077679
    172 H81       -10.4570    2.3050   -0.3490 hn        1 MOL      0.265150
    173 Ca1         2.2440    0.4550   -0.7390 Ca        1 MOL      1.757094
    174 O23         1.5840    2.1280   -2.7110 oh        1 MOL     -0.875733
    175 H82         1.1350    1.6680   -3.4180 ho        1 MOL      0.429025
    176 H83         1.6890    3.0200   -3.0340 ho        1 MOL      0.429025
    177 O24        -0.2930   -0.1790   -1.8500 oh        1 MOL     -0.875733
    178 H84        -0.7630   -0.8790   -2.3110 ho        1 MOL      0.429025
    179 H85        -0.7750    0.6230   -2.0810 ho        1 MOL      0.429025
@<TRIPOS>BOND
     1    1    2 1   
     2    1    4 1   
     3    1    5 1   
     4    1    6 1   
     5    2    3 2   
     6    2    7 1   
     7    7    8 1   
     8    7   15 1   
     9    8    9 1   
    10    8   11 1   
    11    8   16 1   
    12    9   10 2   
    13    9   19 1   
    14   11   12 1   
    15   11   17 1   
    16   11   18 1   
    17   12   13 1   
    18   12   14 1   
    19   19   20 1   
    20   19   28 1   
    21   20   21 1   
    22   20   23 1   
    23   20   29 1   
    24   21   22 2   
    25   21   41 1   
    26   23   24 1   
    27   23   30 1   
    28   23   31 1   
    29   24   25 1   
    30   24   32 1   
    31   24   33 1   
    32   25   26 1   
    33   25   34 1   
    34   25   35 1   
    35   26   27 1   
    36   26   36 1   
    37   26   37 1   
    38   27   38 1   
    39   27   39 1   
    40   27   40 1   
    41   41   42 1   
    42   41   49 1   
    43   42   43 1   
    44   42   45 1   
    45   42   50 1   
    46   43   44 2   
    47   43   53 1   
    48   45   46 1   
    49   45   51 1   
    50   45   52 1   
    51   46   47 1   
    52   46   48 1   
    53   53   54 1   
    54   53   57 1   
    55   54   55 1   
    56   54   58 1   
    57   54   59 1   
    58   55   56 2   
    59   55   60 1   
    60   60   61 1   
    61   60   68 1   
    62   61   62 1   
    63   61   64 1   
    64   61   69 1   
    65   62   63 2   
    66   62   74 1   
    67   64   65 1   
    68   64   70 1   
    69   64   71 1   
    70   65   66 1   
    71   65   67 2   
    72   66   72 1   
    73   66   73 1   
    74   74   75 1   
    75   74   78 1   
    76   75   76 1   
    77   75   79 1   
    78   75   80 1   
    79   76   77 2   
    80   76   81 1   
    81   81   82 1   
    82   81   93 1   
    83   82   83 1   
    84   82   85 1   
    85   82   94 1   
    86   83   84 2   
    87   83  102 1   
    88   85   86 1   
    89   85   95 1   
    90   85   96 1   
    91   86   87 ar  
    92   86   88 ar  
    93   87   89 ar  
    94   87   97 1   
    95   88   90 ar  
    96   88   98 1   
    97   89   91 ar  
    98   89   99 1   
    99   90   91 ar  
   100   90  100 1   
   101   91   92 1   
   102   92  101 1   
   103  102  103 1   
   104  102  110 1   
   105  103  104 1   
   106  103  106 1   
   107  103  111 1   
   108  104  105 2   
   109  104  121 1   
   110  106  107 1   
   111  106  108 1   
   112  106  112 1   
   113  107  109 1   
   114  107  113 1   
   115  107  114 1   
   116  108  115 1   
   117  108  116 1   
   118  108  117 1   
   119  109  118 1   
   120  109  119 1   
   121  109  120 1   
   122  121  122 1   
   123  121  127 1   
   124  122  123 1   
   125  122  125 1   
   126  122  128 1   
   127  123  124 2   
   128  123  132 1   
   129  125  126 1   
   130  125  129 1   
   131  125  130 1   
   132  126  131 1   
   133  132  133 1   
   134  132  137 1   
   135  133  134 1   
   136  133  136 1   
   137  133  138 1   
   138  134  135 2   
   139  134  142 1   
   140  136  139 1   
   141  136  140 1   
   142  136  141 1   
   143  142  143 1   
   144  142  147 1   
   145  143  144 1   
   146  143  146 1   
   147  143  148 1   
   148  144  145 2   
   149  144  152 1   
   150  146  149 1   
   151  146  150 1   
   152  146  151 1   
   153  152  153 1   
   154  152  161 1   
   155  153  154 1   
   156  153  156 1   
   157  153  162 1   
   158  154  155 2   
   159  154  167 1   
   160  156  157 1   
   161  156  163 1   
   162  156  164 1   
   163  157  158 1   
   164  157  165 1   
   165  157  166 1   
   166  158  159 1   
   167  158  160 1   
   168  167  168 1   
   169  167  172 1   
   170  168  169 1   
   171  168  170 1   
   172  168  171 1   
   173  174  175 1   
   174  174  176 1   
   175  177  178 1   
   176  177  179 1   
@<TRIPOS>SUBSTRUCTURE
     1 MOL         1 TEMP              0 ****  ****    0 ROOT
