@<TRIPOS>MOLECULE
MOL
  192   187     1     0     0
SMALL
resp


@<TRIPOS>ATOM
      1 C1          9.7550    0.6160    1.2480 c3        1 MOL     -0.762370
      2 C2          8.6330   -0.0840    0.5670 c         1 MOL      0.790690
      3 O1          7.5710   -0.2930    1.2050 o         1 MOL     -0.671976
      4 H1          9.3540    1.3650    1.9320 hc        1 MOL      0.203791
      5 H2         10.3470   -0.1060    1.8090 hc        1 MOL      0.203791
      6 H3         10.3840    1.1040    0.5050 hc        1 MOL      0.203791
      7 N1          8.7640   -0.3260   -0.7440 n         1 MOL     -0.603001
      8 C3          7.7240   -0.7450   -1.6920 c3        1 MOL      0.372015
      9 C4          7.2670   -2.2730   -1.4700 c         1 MOL      0.374800
     10 O2          7.4060   -3.0840   -2.3980 o         1 MOL     -0.514949
     11 C5          8.1370   -0.4970   -3.1680 c3        1 MOL     -0.314381
     12 C6          8.7810    0.8670   -3.3580 c         1 MOL      0.774146
     13 O3          8.1060    1.8990   -3.1890 o         1 MOL     -0.682048
     14 O4         10.0170    0.8890   -3.6080 o         1 MOL     -0.682048
     15 H4          9.6830   -0.1970   -1.1450 hn        1 MOL      0.298975
     16 H5          6.8620   -0.1180   -1.5030 h1        1 MOL     -0.046417
     17 H6          7.2290   -0.5690   -3.7610 hc        1 MOL      0.070156
     18 H7          8.8410   -1.2920   -3.3970 hc        1 MOL      0.070156
     19 N2          6.7870   -2.5520   -0.2750 n         1 MOL     -0.222536
     20 C7          6.2080   -3.8340    0.1420 c3        1 MOL      0.284022
     21 C8          4.6600   -4.1110   -0.0700 c         1 MOL      0.449777
     22 O5          4.3060   -5.2330   -0.4670 o         1 MOL     -0.538297
     23 C9          6.7050   -4.0810    1.5890 c3        1 MOL     -0.308988
     24 C10         8.1780   -4.4190    1.6470 c3        1 MOL      0.131241
     25 C11         8.6070   -4.5560    3.1070 c3        1 MOL     -0.229461
     26 C12        10.1380   -4.5370    3.1890 c3        1 MOL      0.027424
     27 N3         10.5640   -4.5690    4.5500 n4        1 MOL     -0.130166
     28 H8          6.7780   -1.7860    0.3760 hn        1 MOL      0.156074
     29 H9          6.6770   -4.6440   -0.4040 h1        1 MOL     -0.008882
     30 H10         6.1320   -4.9340    1.9590 hc        1 MOL      0.078882
     31 H11         6.5370   -3.1560    2.1480 hc        1 MOL      0.078882
     32 H12         8.7770   -3.7190    1.0690 hc        1 MOL      0.014798
     33 H13         8.4020   -5.4050    1.2380 hc        1 MOL      0.014798
     34 H14         8.2770   -5.5570    3.3610 hc        1 MOL      0.097748
     35 H15         8.1900   -3.8320    3.7990 hc        1 MOL      0.097748
     36 H16        10.6000   -3.6630    2.7200 hx        1 MOL      0.070536
     37 H17        10.3950   -5.4830    2.7180 hx        1 MOL      0.070536
     38 H18        11.5680   -4.6160    4.6680 hn        1 MOL      0.220866
     39 H19        10.3510   -3.6740    4.9720 hn        1 MOL      0.220866
     40 H20        10.0730   -5.2920    5.0530 hn        1 MOL      0.220866
     41 N4          3.6920   -3.2470    0.2130 n         1 MOL     -0.497099
     42 C13         3.7510   -1.9140    0.7510 c3        1 MOL      0.185212
     43 C14         3.9840   -0.7520   -0.2350 c         1 MOL      0.425528
     44 O6          3.7950   -0.8470   -1.4490 o         1 MOL     -0.508493
     45 C15         2.4450   -1.5320    1.5690 c3        1 MOL     -0.165129
     46 C16         1.1050   -1.9210    0.9630 c         1 MOL      0.696354
     47 O7          0.3160   -0.9510    0.7970 o         1 MOL     -0.670672
     48 O8          0.9010   -3.1340    0.5900 o         1 MOL     -0.670672
     49 H21         2.7840   -3.6720    0.0400 hn        1 MOL      0.359065
     50 H22         4.5770   -1.9420    1.4620 h1        1 MOL     -0.001760
     51 H23         2.4890   -0.5030    1.9270 hc        1 MOL      0.004741
     52 H24         2.5180   -2.0880    2.5050 hc        1 MOL      0.004741
     53 N5          4.4500    0.3670    0.3380 n         1 MOL     -0.132585
     54 C17         4.6500    1.5850   -0.4250 c3        1 MOL     -0.251749
     55 C18         3.4320    2.4560   -0.7840 c         1 MOL      0.561245
     56 O9          2.2630    2.0360   -0.5150 o         1 MOL     -0.601896
     57 H25         4.6990    0.4140    1.3180 hn        1 MOL      0.222413
     58 H26         5.1200    1.2290   -1.3440 h1        1 MOL      0.156441
     59 H27         5.4730    2.0410    0.1220 h1        1 MOL      0.156441
     60 N6          3.6660    3.5970   -1.4660 n         1 MOL     -0.672359
     61 C19         2.5410    4.4320   -1.8870 c3        1 MOL      0.315048
     62 C20         2.8760    5.9490   -1.9730 c         1 MOL      0.396961
     63 O10         4.0480    6.2890   -1.7880 o         1 MOL     -0.497616
     64 C21         2.0140    3.9380   -3.2280 c3        1 MOL     -0.062089
     65 C22         1.4260    2.5650   -3.2830 c         1 MOL      0.781862
     66 O11         0.4240    2.3560   -2.5620 o         1 MOL     -0.724376
     67 O12         1.8220    1.7360   -4.1440 o         1 MOL     -0.724376
     68 H28         4.6010    3.9050   -1.7060 hn        1 MOL      0.378589
     69 H29         1.7910    4.3120   -1.0950 h1        1 MOL      0.099535
     70 H30         2.7560    4.0220   -4.0210 hc        1 MOL     -0.000200
     71 H31         1.2380    4.6090   -3.5970 hc        1 MOL     -0.000200
     72 N7          1.9230    6.8820   -2.3470 n         1 MOL     -0.456126
     73 C23         0.5020    6.7740   -2.2510 c3        1 MOL     -0.085222
     74 C24        -0.0830    6.4110   -0.8910 c         1 MOL      0.598826
     75 O13         0.3070    6.9240    0.1660 o         1 MOL     -0.537704
     76 H32         2.3250    7.7770   -2.5630 hn        1 MOL      0.323010
     77 H33         0.1220    6.1440   -3.0510 h1        1 MOL      0.087034
     78 H34         0.0580    7.7300   -2.5460 h1        1 MOL      0.087034
     79 N8         -1.0970    5.5650   -0.9260 n         1 MOL     -0.659246
     80 C25        -1.8610    5.1250    0.2670 c3        1 MOL      0.110254
     81 C26        -1.2930    3.8670    0.7850 c         1 MOL      0.797080
     82 O14        -0.8280    3.0920   -0.0490 o         1 MOL     -0.636272
     83 C27        -3.3790    5.1820    0.0320 c3        1 MOL      0.452395
     84 C28        -4.1970    4.8840    1.1690 c3        1 MOL     -0.330990
     85 O15        -3.7520    4.2120   -0.9500 oh        1 MOL     -0.662677
     86 H35        -1.3860    5.1960   -1.8230 hn        1 MOL      0.295240
     87 H36        -1.7120    5.8660    1.0600 h1        1 MOL      0.012315
     88 H37        -3.6780    6.1600   -0.3410 h1        1 MOL     -0.004494
     89 H38        -4.2490    4.7150   -1.6050 ho        1 MOL      0.403454
     90 H39        -5.2370    4.8040    0.8660 hc        1 MOL      0.059030
     91 H40        -3.8260    3.9680    1.6400 hc        1 MOL      0.059030
     92 H41        -4.0640    5.6850    1.8840 hc        1 MOL      0.059030
     93 N9         -1.2250    3.7240    2.1010 n         1 MOL     -0.481301
     94 C29        -0.7090    2.6030    2.9340 c3        1 MOL      0.000070
     95 C30        -1.5680    1.2750    2.6300 c         1 MOL      0.387241
     96 O16        -1.6540    0.8640    1.4440 o         1 MOL     -0.546837
     97 C31         0.8550    2.4020    2.7520 c3        1 MOL      0.166080
     98 C32         1.6630    3.7120    2.8850 c3        1 MOL     -0.167842
     99 C33         1.3760    1.3310    3.7270 c3        1 MOL     -0.386567
    100 C34         1.5530    4.5500    4.1370 c3        1 MOL     -0.390889
    101 H42        -1.5950    4.4910    2.6370 hn        1 MOL      0.282346
    102 H43        -0.8270    2.9530    3.9590 h1        1 MOL      0.061445
    103 H44         1.0720    2.1620    1.7100 hc        1 MOL     -0.018569
    104 H45         1.3540    4.3650    2.0680 hc        1 MOL      0.114684
    105 H46         2.7440    3.5760    2.7990 hc        1 MOL      0.114684
    106 H47         2.3870    1.0700    3.4250 hc        1 MOL      0.108096
    107 H48         1.4080    1.6220    4.7780 hc        1 MOL      0.108096
    108 H49         0.7970    0.4160    3.6490 hc        1 MOL      0.108096
    109 H50         2.2870    5.3390    4.0110 hc        1 MOL      0.104058
    110 H51         0.5410    4.9470    4.2400 hc        1 MOL      0.104058
    111 H52         1.9080    4.0950    5.0590 hc        1 MOL      0.104058
    112 N10        -2.0570    0.5880    3.6600 n         1 MOL     -0.315159
    113 C35        -2.8420   -0.6290    3.5540 c3        1 MOL     -0.085492
    114 C36        -4.1610   -0.6230    2.7030 c         1 MOL      0.337521
    115 O17        -4.7030   -1.7090    2.5030 o         1 MOL     -0.491400
    116 C37        -3.0910   -1.3100    4.9440 c3        1 MOL      0.446151
    117 C38        -3.9740   -0.3270    5.8270 c3        1 MOL     -0.373100
    118 O18        -1.8570   -1.6030    5.6100 oh        1 MOL     -0.614822
    119 H53        -1.9010    0.9490    4.5900 hn        1 MOL      0.229566
    120 H54        -2.1890   -1.3240    3.0210 h1        1 MOL      0.128171
    121 H55        -3.6830   -2.2220    4.8550 h1        1 MOL      0.048210
    122 H56        -1.6410   -0.7750    6.0500 ho        1 MOL      0.379603
    123 H57        -3.5770    0.6880    5.7870 hc        1 MOL      0.085641
    124 H58        -4.9470   -0.3390    5.3430 hc        1 MOL      0.085641
    125 H59        -4.0470   -0.7210    6.8350 hc        1 MOL      0.085641
    126 N11        -4.7180    0.5500    2.3520 n         1 MOL     -0.100997
    127 C39        -6.1430    0.5620    1.8910 c3        1 MOL     -0.209491
    128 C40        -6.2620   -0.0980    0.5520 c         1 MOL      0.666017
    129 O19        -5.6010    0.3390   -0.3720 o         1 MOL     -0.543499
    130 C41        -6.5920    2.0250    1.7450 c3        1 MOL      0.320352
    131 C42        -8.0630    2.0980    1.2480 c3        1 MOL     -0.288475
    132 O20        -6.5850    2.6030    3.0530 oh        1 MOL     -0.631075
    133 H60        -4.3770    1.4280    2.7180 hn        1 MOL      0.191291
    134 H61        -6.7430   -0.0490    2.5610 h1        1 MOL      0.138831
    135 H62        -5.9470    2.6030    1.0940 h1        1 MOL     -0.006496
    136 H63        -6.9040    3.5060    3.0180 ho        1 MOL      0.415443
    137 H64        -8.7250    1.5370    1.9050 hc        1 MOL      0.079088
    138 H65        -8.4020    3.1050    1.5170 hc        1 MOL      0.079088
    139 H66        -8.0500    1.9180    0.1790 hc        1 MOL      0.079088
    140 N12        -7.0960   -1.1120    0.4570 n         1 MOL     -0.374812
    141 C43        -7.3040   -2.0840   -0.5970 c3        1 MOL      0.167258
    142 C44        -6.0080   -2.3050   -1.3730 c         1 MOL      0.512471
    143 O21        -5.9920   -2.0720   -2.5870 o         1 MOL     -0.524100
    144 C45        -8.4960   -1.8400   -1.4770 c3        1 MOL     -0.259168
    145 C46        -9.7400   -1.6930   -0.6400 c3        1 MOL      0.107800
    146 C47       -10.9530   -1.6060   -1.5430 c3        1 MOL     -0.212915
    147 C48       -12.2930   -1.8270   -0.7160 c3        1 MOL      0.125529
    148 N13       -13.4000   -2.2260   -1.6180 n4        1 MOL     -0.078400
    149 H67        -7.5970   -1.3230    1.3040 hn        1 MOL      0.156889
    150 H68        -7.4500   -3.0940   -0.2160 h1        1 MOL      0.027820
    151 H69        -8.5030   -2.5930   -2.2660 hc        1 MOL      0.094921
    152 H70        -8.3240   -0.8540   -1.9020 hc        1 MOL      0.094921
    153 H71        -9.7060   -0.7440   -0.1080 hc        1 MOL      0.022717
    154 H72        -9.8460   -2.6240   -0.0940 hc        1 MOL      0.022717
    155 H73       -10.9110   -2.4220   -2.2640 hc        1 MOL      0.084878
    156 H74       -10.9050   -0.5840   -1.9060 hc        1 MOL      0.084878
    157 H75       -12.5190   -0.8540   -0.2730 hx        1 MOL      0.028143
    158 H76       -12.1340   -2.5390    0.0850 hx        1 MOL      0.028143
    159 H77       -14.3000   -2.3720   -1.1810 hn        1 MOL      0.168364
    160 H78       -13.5120   -1.5750   -2.3830 hn        1 MOL      0.168364
    161 H79       -13.1670   -3.0550   -2.1500 hn        1 MOL      0.168364
    162 N14        -4.9270   -2.8490   -0.7770 n         1 MOL     -0.382219
    163 C49        -3.6910   -3.1890   -1.5030 c3        1 MOL      0.020767
    164 C50        -2.4980   -2.8240   -0.6020 c         1 MOL      0.639194
    165 O22        -1.7800   -1.9230   -0.9530 o         1 MOL     -0.721471
    166 C51        -3.7080   -4.7140   -1.9510 c3        1 MOL     -0.066842
    167 C52        -4.5360   -4.9380   -3.2170 c3        1 MOL     -0.325644
    168 C53        -4.4720   -6.3750   -3.7390 c         1 MOL      0.744108
    169 O23        -5.3560   -7.2000   -3.4070 o         1 MOL     -0.633381
    170 O24        -3.5230   -6.7670   -4.4210 o         1 MOL     -0.633381
    171 H80        -4.9460   -2.9730    0.2240 hn        1 MOL      0.237390
    172 H81        -3.5250   -2.5760   -2.3910 h1        1 MOL      0.121069
    173 H82        -4.1400   -5.3140   -1.1390 hc        1 MOL      0.078160
    174 H83        -2.7000   -5.0810   -2.1030 hc        1 MOL      0.078160
    175 H84        -4.1670   -4.3040   -4.0170 hc        1 MOL      0.077893
    176 H85        -5.5910   -4.6930   -3.1270 hc        1 MOL      0.077893
    177 N15        -2.0240   -3.4580    0.4790 n         1 MOL     -0.375117
    178 C54        -2.6150   -4.6370    1.0560 c3        1 MOL     -0.003314
    179 H86        -1.8490   -5.2040    1.5860 h1        1 MOL      0.021818
    180 H87        -3.4000   -4.3470    1.7540 h1        1 MOL      0.021818
    181 H88        -3.0410   -5.2550    0.2660 h1        1 MOL      0.021818
    182 H89        -1.0570   -3.2490    0.7070 hn        1 MOL      0.343005
    183 Ca1        -0.7340    0.5580   -0.9620 Ca        1 MOL      1.830353
    184 O25        -1.6670   -0.2110   -3.4310 oh        1 MOL     -0.906557
    185 H90        -1.9880   -0.1540   -4.3340 ho        1 MOL      0.435117
    186 H91        -1.3300   -1.0930   -3.3400 ho        1 MOL      0.435117
    187 O26        -3.3050    1.4740   -1.0680 oh        1 MOL     -0.906557
    188 H92        -4.1260    1.1740   -0.7050 ho        1 MOL      0.435117
    189 H93        -3.4760    2.3880   -1.3210 ho        1 MOL      0.435117
    190 O27         1.3960   -0.3910   -2.5310 oh        1 MOL     -0.906557
    191 H94         1.5390    0.2820   -3.1970 ho        1 MOL      0.435117
    192 H95         2.2560   -0.7810   -2.3890 ho        1 MOL      0.435117
@<TRIPOS>BOND
     1    1    2 1   
     2    1    4 1   
     3    1    5 1   
     4    1    6 1   
     5    2    3 2   
     6    2    7 1   
     7    7    8 1   
     8    7   15 1   
     9    8    9 1   
    10    8   11 1   
    11    8   16 1   
    12    9   10 2   
    13    9   19 1   
    14   11   12 1   
    15   11   17 1   
    16   11   18 1   
    17   12   13 1   
    18   12   14 1   
    19   19   20 1   
    20   19   28 1   
    21   20   21 1   
    22   20   23 1   
    23   20   29 1   
    24   21   22 2   
    25   21   41 1   
    26   23   24 1   
    27   23   30 1   
    28   23   31 1   
    29   24   25 1   
    30   24   32 1   
    31   24   33 1   
    32   25   26 1   
    33   25   34 1   
    34   25   35 1   
    35   26   27 1   
    36   26   36 1   
    37   26   37 1   
    38   27   38 1   
    39   27   39 1   
    40   27   40 1   
    41   41   42 1   
    42   41   49 1   
    43   42   43 1   
    44   42   45 1   
    45   42   50 1   
    46   43   44 2   
    47   43   53 1   
    48   45   46 1   
    49   45   51 1   
    50   45   52 1   
    51   46   47 1   
    52   46   48 1   
    53   53   54 1   
    54   53   57 1   
    55   54   55 1   
    56   54   58 1   
    57   54   59 1   
    58   55   56 2   
    59   55   60 1   
    60   60   61 1   
    61   60   68 1   
    62   61   62 1   
    63   61   64 1   
    64   61   69 1   
    65   62   63 2   
    66   62   72 1   
    67   64   65 1   
    68   64   70 1   
    69   64   71 1   
    70   65   66 1   
    71   65   67 1   
    72   72   73 1   
    73   72   76 1   
    74   73   74 1   
    75   73   77 1   
    76   73   78 1   
    77   74   75 2   
    78   74   79 1   
    79   79   80 1   
    80   79   86 1   
    81   80   81 1   
    82   80   83 1   
    83   80   87 1   
    84   81   82 2   
    85   81   93 1   
    86   83   84 1   
    87   83   85 1   
    88   83   88 1   
    89   84   90 1   
    90   84   91 1   
    91   84   92 1   
    92   85   89 1   
    93   93   94 1   
    94   93  101 1   
    95   94   95 1   
    96   94   97 1   
    97   94  102 1   
    98   95   96 2   
    99   95  112 1   
   100   97   98 1   
   101   97   99 1   
   102   97  103 1   
   103   98  100 1   
   104   98  104 1   
   105   98  105 1   
   106   99  106 1   
   107   99  107 1   
   108   99  108 1   
   109  100  109 1   
   110  100  110 1   
   111  100  111 1   
   112  112  113 1   
   113  112  119 1   
   114  113  114 1   
   115  113  116 1   
   116  113  120 1   
   117  114  115 2   
   118  114  126 1   
   119  116  117 1   
   120  116  118 1   
   121  116  121 1   
   122  117  123 1   
   123  117  124 1   
   124  117  125 1   
   125  118  122 1   
   126  126  127 1   
   127  126  133 1   
   128  127  128 1   
   129  127  130 1   
   130  127  134 1   
   131  128  129 2   
   132  128  140 1   
   133  130  131 1   
   134  130  132 1   
   135  130  135 1   
   136  131  137 1   
   137  131  138 1   
   138  131  139 1   
   139  132  136 1   
   140  140  141 1   
   141  140  149 1   
   142  141  142 1   
   143  141  144 1   
   144  141  150 1   
   145  142  143 2   
   146  142  162 1   
   147  144  145 1   
   148  144  151 1   
   149  144  152 1   
   150  145  146 1   
   151  145  153 1   
   152  145  154 1   
   153  146  147 1   
   154  146  155 1   
   155  146  156 1   
   156  147  148 1   
   157  147  157 1   
   158  147  158 1   
   159  148  159 1   
   160  148  160 1   
   161  148  161 1   
   162  162  163 1   
   163  162  171 1   
   164  163  164 1   
   165  163  166 1   
   166  163  172 1   
   167  164  165 2   
   168  164  177 1   
   169  166  167 1   
   170  166  173 1   
   171  166  174 1   
   172  167  168 1   
   173  167  175 1   
   174  167  176 1   
   175  168  169 1   
   176  168  170 1   
   177  177  178 1   
   178  177  182 1   
   179  178  179 1   
   180  178  180 1   
   181  178  181 1   
   182  184  185 1   
   183  184  186 1   
   184  187  188 1   
   185  187  189 1   
   186  190  191 1   
   187  190  192 1   
@<TRIPOS>SUBSTRUCTURE
     1 MOL         1 TEMP              0 ****  ****    0 ROOT
