@<TRIPOS>MOLECULE
MOL
  186   183     1     0     0
SMALL
resp


@<TRIPOS>ATOM
      1 C1         -6.2900   -4.4940   -3.5980 c3        1 MOL     -0.510437
      2 C2         -6.4530   -3.7030   -2.3350 c         1 MOL      0.975815
      3 O1         -5.5680   -3.5710   -1.5090 o         1 MOL     -0.712699
      4 H1         -5.6050   -5.3230   -3.4210 hc        1 MOL      0.119875
      5 H2         -7.2590   -4.8840   -3.9110 hc        1 MOL      0.119875
      6 H3         -5.8870   -3.8510   -4.3810 hc        1 MOL      0.119875
      7 N1         -7.5960   -3.0980   -2.1770 n         1 MOL     -0.877346
      8 C3         -7.8600   -1.9360   -1.3450 c3        1 MOL      0.658124
      9 C4         -6.6820   -0.9190   -1.2310 c         1 MOL      0.158960
     10 O2         -5.9690   -0.7750   -0.2740 o         1 MOL     -0.624410
     11 C5         -8.3130   -2.3030    0.1240 c3        1 MOL     -0.463585
     12 C6         -7.6620   -3.5920    0.7350 c         1 MOL      0.857768
     13 O3         -6.4590   -3.6290    1.1090 o         1 MOL     -0.744299
     14 O4         -8.3730   -4.6490    0.9830 o         1 MOL     -0.744299
     15 H4         -8.3210   -3.4250   -2.8040 hn        1 MOL      0.352511
     16 H5         -8.6760   -1.3770   -1.8090 h1        1 MOL     -0.038613
     17 H6         -9.3910   -2.3270   -0.0160 hc        1 MOL      0.082794
     18 H7         -8.2190   -1.4810    0.8440 hc        1 MOL      0.082794
     19 N2         -6.4900   -0.1890   -2.2690 n         1 MOL     -0.411379
     20 C7         -5.5290    0.9050   -2.5560 c3        1 MOL      0.141375
     21 C8         -5.7030    2.1600   -1.6860 c         1 MOL      0.289434
     22 O5         -5.6460    3.2410   -2.2270 o         1 MOL     -0.518046
     23 C9         -4.0350    0.3320   -2.5120 c3        1 MOL      0.069776
     24 C10        -2.8880    1.3860   -2.4580 c3        1 MOL     -0.187883
     25 C11        -3.6460   -0.3880   -3.7850 c3        1 MOL     -0.441852
     26 C12        -2.9400    2.5190   -3.5150 c3        1 MOL     -0.305715
     27 H8         -7.0410   -0.4540   -3.0700 hn        1 MOL      0.248998
     28 H9         -5.6070    1.1840   -3.6020 h1        1 MOL      0.062858
     29 H10        -3.9910   -0.4660   -1.7730 hc        1 MOL      0.197151
     30 H11        -1.9120    0.9140   -2.4070 hc        1 MOL      0.178855
     31 H12        -3.0320    1.7960   -1.4650 hc        1 MOL      0.178855
     32 H13        -3.9390    0.2230   -4.6380 hc        1 MOL      0.093321
     33 H14        -2.6370   -0.8030   -3.7400 hc        1 MOL      0.093321
     34 H15        -4.2570   -1.2920   -3.8820 hc        1 MOL      0.093321
     35 H16        -3.8910    3.0470   -3.5840 hc        1 MOL      0.078415
     36 H17        -2.2220    3.2920   -3.2180 hc        1 MOL      0.078415
     37 H18        -2.6200    2.2500   -4.5230 hc        1 MOL      0.078415
     38 N3         -6.0960    2.0550   -0.4300 n         1 MOL     -0.078490
     39 C13        -6.7850    3.1010    0.3270 c3        1 MOL     -0.125356
     40 C14        -5.8880    4.3580    0.6240 c         1 MOL      0.594558
     41 O6         -6.4080    5.4480    0.5100 o         1 MOL     -0.549552
     42 C15        -7.3130    2.5830    1.6700 c3        1 MOL     -0.298258
     43 C16        -8.3720    3.4870    2.1960 c         1 MOL      0.787414
     44 O7         -9.4390    3.6280    1.5930 o         1 MOL     -0.751626
     45 O8         -8.1470    3.9660    3.3310 o         1 MOL     -0.751626
     46 H19        -6.1810    1.1090   -0.0760 hn        1 MOL      0.348412
     47 H20        -7.6000    3.3470   -0.3510 h1        1 MOL      0.082932
     48 H21        -6.5310    2.3950    2.3970 hc        1 MOL      0.087253
     49 H22        -7.7150    1.5920    1.4550 hc        1 MOL      0.087253
     50 N4         -4.6000    4.3070    0.9980 n         1 MOL     -0.501222
     51 C17        -3.7480    3.1780    1.3330 c3        1 MOL      0.181604
     52 C18        -3.0140    3.3560    2.6990 c         1 MOL      0.636181
     53 O9         -2.7620    4.5070    3.1310 o         1 MOL     -0.588572
     54 H23        -4.1160    5.1860    0.9180 hn        1 MOL      0.274957
     55 H24        -2.9920    3.1640    0.5440 h1        1 MOL     -0.002942
     56 H25        -4.2070    2.1870    1.2640 h1        1 MOL     -0.002942
     57 N5         -2.5590    2.3360    3.4630 n         1 MOL     -0.691044
     58 C19        -2.5430    0.9270    3.1610 c3        1 MOL      0.415647
     59 C20        -2.3710    0.5420    1.6910 c         1 MOL      0.382263
     60 O10        -3.2960    0.0730    1.0530 o         1 MOL     -0.665312
     61 C21        -3.8430    0.2930    3.7150 c3        1 MOL     -0.267499
     62 C22        -3.9500   -1.2210    3.5630 c         1 MOL      0.824149
     63 O11        -4.8260   -1.7500    2.8200 o         1 MOL     -0.736833
     64 O12        -3.0150   -1.8910    4.1010 o         1 MOL     -0.736833
     65 H26        -2.3360    2.5860    4.4170 hn        1 MOL      0.339090
     66 H27        -1.7310    0.4160    3.6800 h1        1 MOL     -0.003762
     67 H28        -4.7120    0.7100    3.1970 hc        1 MOL      0.039758
     68 H29        -3.9240    0.4520    4.7820 hc        1 MOL      0.039758
     69 N6         -1.2370    0.7700    1.0460 n         1 MOL     -0.214926
     70 C23        -0.0070    1.5090    1.5790 c3        1 MOL      0.000733
     71 C24         0.3240    2.8240    0.9150 c         1 MOL      0.469303
     72 O13        -0.4190    3.3060    0.0290 o         1 MOL     -0.522991
     73 H30        -1.3710    0.5900    0.0590 hn        1 MOL      0.206827
     74 H31         0.8490    0.8810    1.3420 h1        1 MOL      0.048408
     75 H32         0.0250    1.6330    2.6650 h1        1 MOL      0.048408
     76 N7          1.5090    3.3760    1.2250 n         1 MOL     -0.429047
     77 C25         2.0190    4.6320    0.7040 c3        1 MOL      0.052131
     78 C26         2.6540    4.5550   -0.7510 c         1 MOL      0.373940
     79 O14         3.1430    5.5680   -1.2670 o         1 MOL     -0.489778
     80 C27         2.8850    5.1700    1.8480 c3        1 MOL      0.060535
     81 C28         3.6460    6.4980    1.7890 c3        1 MOL     -0.222955
     82 C29         2.7940    7.6820    1.4090 c         1 MOL      0.710522
     83 N8          2.4590    7.8900    0.1240 n         1 MOL     -0.858263
     84 O15         2.3340    8.4480    2.2760 o         1 MOL     -0.582380
     85 H33         2.0470    2.8820    1.9220 hn        1 MOL      0.261573
     86 H34         1.2350    5.3850    0.6120 h1        1 MOL      0.135199
     87 H35         3.6250    4.3970    2.0290 hc        1 MOL      0.022171
     88 H36         2.2130    5.1770    2.7070 hc        1 MOL      0.022171
     89 H37         4.4570    6.4730    1.0550 hc        1 MOL      0.041829
     90 H38         3.9690    6.6740    2.8090 hc        1 MOL      0.041829
     91 H39         2.7670    7.1920   -0.5390 hn        1 MOL      0.382140
     92 H40         1.7660    8.5980   -0.0990 hn        1 MOL      0.382140
     93 N9          2.8370    3.3480   -1.3580 n         1 MOL     -0.298565
     94 C30         3.1440    3.0860   -2.7920 c3        1 MOL     -0.130769
     95 C31         4.4890    2.2270   -2.9210 c         1 MOL      0.515648
     96 O16         4.8800    1.9320   -4.0440 o         1 MOL     -0.509556
     97 C32         1.9720    2.4400   -3.5360 c3        1 MOL      0.202569
     98 C33         0.7070    3.3590   -3.6720 c3        1 MOL     -0.243681
     99 C34         1.4320    1.1570   -2.8660 c3        1 MOL     -0.243681
    100 H41         2.6740    2.5850   -0.7290 hn        1 MOL      0.222084
    101 H42         3.3400    4.0670   -3.2110 h1        1 MOL      0.150949
    102 H43         2.1760    2.2800   -4.5930 hc        1 MOL      0.006999
    103 H44         0.2670    3.6150   -2.7120 hc        1 MOL      0.058901
    104 H45         1.0040    4.3300   -4.0760 hc        1 MOL      0.058901
    105 H46        -0.0840    2.8400   -4.2120 hc        1 MOL      0.058901
    106 H47         0.6590    0.6890   -3.4810 hc        1 MOL      0.058901
    107 H48         2.2990    0.5280   -2.6840 hc        1 MOL      0.058901
    108 H49         1.0470    1.3450   -1.8600 hc        1 MOL      0.058901
    109 N10         5.2360    1.9590   -1.8140 n         1 MOL     -0.347664
    110 C35         6.6530    1.3310   -1.9330 c3        1 MOL      0.137422
    111 C36         6.8050   -0.0760   -1.4230 c         1 MOL      0.415939
    112 O17         7.8280   -0.7050   -1.7700 o         1 MOL     -0.490805
    113 C37         7.6200    2.2910   -1.2330 c3        1 MOL     -0.419613
    114 C38         7.4170    3.6470   -1.8370 c         1 MOL      0.577372
    115 N11         6.8600    4.5450   -1.0630 n         1 MOL     -0.705610
    116 O18         7.5750    3.9390   -2.9690 o         1 MOL     -0.491864
    117 H50         4.8480    2.2330   -0.9320 hn        1 MOL      0.226531
    118 H51         6.9130    1.3280   -2.9890 h1        1 MOL      0.092618
    119 H52         8.6380    1.9230   -1.4230 hc        1 MOL      0.145264
    120 H53         7.5390    2.3500   -0.1460 hc        1 MOL      0.145264
    121 H54         6.7230    4.3390   -0.0820 hn        1 MOL      0.333695
    122 H55         6.8790    5.5180   -1.3150 hn        1 MOL      0.333695
    123 N12         5.8820   -0.5610   -0.5820 n         1 MOL     -0.359058
    124 C39         6.0800   -1.8130    0.1100 c3        1 MOL      0.052008
    125 C40         4.7980   -2.5840    0.5340 c         1 MOL      0.602829
    126 O19         3.7810   -2.0360    0.9430 o         1 MOL     -0.478268
    127 C41         6.7460   -1.5360    1.4170 c3        1 MOL     -0.096630
    128 C42         8.2360   -1.1820    1.3690 ca        1 MOL     -0.040003
    129 C43         8.6950    0.1730    1.6930 ca        1 MOL     -0.058022
    130 C44         9.2150   -2.1400    1.1000 ca        1 MOL     -0.058022
    131 C45        10.0370    0.3950    1.7980 ca        1 MOL     -0.298957
    132 C46        10.5410   -1.9330    1.4150 ca        1 MOL     -0.298957
    133 C47        10.9480   -0.6720    1.8050 ca        1 MOL      0.395812
    134 O20        12.2550   -0.5030    2.1020 oh        1 MOL     -0.545097
    135 H56         5.0540   -0.0230   -0.3440 hn        1 MOL      0.234636
    136 H57         6.7600   -2.4360   -0.4720 h1        1 MOL      0.049109
    137 H58         6.6360   -2.4200    2.0340 hc        1 MOL      0.058912
    138 H59         6.0750   -0.7760    1.8140 hc        1 MOL      0.058912
    139 H60         8.0420    1.0280    1.8290 ha        1 MOL      0.107125
    140 H61         8.8700   -3.1420    0.8880 ha        1 MOL      0.107125
    141 H62        10.4100    1.4020    1.9220 ha        1 MOL      0.138696
    142 H63        11.3000   -2.6930    1.3320 ha        1 MOL      0.138696
    143 H64        12.7400   -1.3200    2.2650 ho        1 MOL      0.384555
    144 N13         4.9210   -3.9480    0.4780 n         1 MOL     -0.633798
    145 C48         3.8490   -4.9080    0.7510 c3        1 MOL      0.158971
    146 C49         2.6880   -4.8480   -0.2340 c         1 MOL      0.203678
    147 O21         1.9410   -5.8260   -0.3500 o         1 MOL     -0.501084
    148 C50         3.4250   -4.9830    2.2430 c3        1 MOL      0.041543
    149 C51         4.5520   -5.5610    3.1310 c3        1 MOL     -0.187216
    150 C52         4.0520   -5.5990    4.5510 c         1 MOL      0.657695
    151 O22         4.1040   -4.5100    5.1840 o         1 MOL     -0.716445
    152 O23         3.5390   -6.6140    5.0400 o         1 MOL     -0.716445
    153 H65         5.7950   -4.3430    0.1500 hn        1 MOL      0.332390
    154 H66         4.2240   -5.9100    0.5360 h1        1 MOL      0.064516
    155 H67         2.5850   -5.6680    2.2980 hc        1 MOL      0.063900
    156 H68         3.2390   -3.9850    2.6460 hc        1 MOL      0.063900
    157 H69         5.4780   -4.9910    3.0420 hc        1 MOL     -0.000061
    158 H70         4.7860   -6.5820    2.8120 hc        1 MOL     -0.000061
    159 N14         2.4590   -3.8050   -1.0490 n         1 MOL      0.045007
    160 C53         1.2040   -3.6970   -1.8740 c3        1 MOL     -0.244009
    161 C54         1.3330   -4.4500   -3.1430 c         1 MOL      0.385730
    162 O24         0.3350   -4.7460   -3.8170 o         1 MOL     -0.513322
    163 C55         0.7900   -2.1920   -2.0710 c3        1 MOL     -0.059104
    164 C56         0.2470   -1.5470   -0.7780 c3        1 MOL      0.132223
    165 C57        -1.1200   -2.0840   -0.3380 c         1 MOL      0.696198
    166 O25        -2.1020   -2.0390   -1.1550 o         1 MOL     -0.768462
    167 O26        -1.3510   -2.5060    0.8180 o         1 MOL     -0.768462
    168 H71         3.0710   -3.0090   -0.9790 hn        1 MOL      0.068400
    169 H72         0.4350   -4.1910   -1.2650 h1        1 MOL      0.223938
    170 H73         0.0590   -2.0730   -2.8710 hc        1 MOL      0.038699
    171 H74         1.6850   -1.7160   -2.4740 hc        1 MOL      0.038699
    172 H75        -0.0790   -0.5290   -1.0230 hc        1 MOL     -0.085398
    173 H76         0.9300   -1.6750    0.0540 hc        1 MOL     -0.085398
    174 N15         2.5450   -4.9270   -3.5210 n         1 MOL     -0.099093
    175 C58         2.8890   -5.7650   -4.6320 c3        1 MOL     -0.183309
    176 H77         3.6330   -6.4970   -4.3170 h1        1 MOL      0.078549
    177 H78         1.9980   -6.2830   -4.9870 h1        1 MOL      0.078549
    178 H79         3.3000   -5.1550   -5.4360 h1        1 MOL      0.078549
    179 H80         3.3380   -4.6100   -2.9960 hn        1 MOL      0.135906
    180 Ca1        -4.1390   -2.5540    0.5120 Ca        1 MOL      1.785388
    181 O27        -3.0750   -4.3400    2.6590 oh        1 MOL     -0.804147
    182 H81        -2.8130   -3.5000    3.0360 ho        1 MOL      0.396317
    183 H82        -2.2630   -4.7370    2.3560 ho        1 MOL      0.396317
    184 O28        -3.2690   -4.8760   -0.5830 oh        1 MOL     -0.804147
    185 H83        -3.2710   -4.7410   -1.5290 ho        1 MOL      0.396317
    186 H84        -2.4500   -5.3370   -0.4020 ho        1 MOL      0.396317
@<TRIPOS>BOND
     1    1    2 1   
     2    1    4 1   
     3    1    5 1   
     4    1    6 1   
     5    2    3 2   
     6    2    7 1   
     7    7    8 1   
     8    7   15 1   
     9    8    9 1   
    10    8   11 1   
    11    8   16 1   
    12    9   10 2   
    13    9   19 1   
    14   11   12 1   
    15   11   17 1   
    16   11   18 1   
    17   12   13 1   
    18   12   14 1   
    19   19   20 1   
    20   19   27 1   
    21   20   21 1   
    22   20   23 1   
    23   20   28 1   
    24   21   22 2   
    25   21   38 1   
    26   23   24 1   
    27   23   25 1   
    28   23   29 1   
    29   24   26 1   
    30   24   30 1   
    31   24   31 1   
    32   25   32 1   
    33   25   33 1   
    34   25   34 1   
    35   26   35 1   
    36   26   36 1   
    37   26   37 1   
    38   38   39 1   
    39   38   46 1   
    40   39   40 1   
    41   39   42 1   
    42   39   47 1   
    43   40   41 2   
    44   40   50 1   
    45   42   43 1   
    46   42   48 1   
    47   42   49 1   
    48   43   44 1   
    49   43   45 1   
    50   50   51 1   
    51   50   54 1   
    52   51   52 1   
    53   51   55 1   
    54   51   56 1   
    55   52   53 2   
    56   52   57 1   
    57   57   58 1   
    58   57   65 1   
    59   58   59 1   
    60   58   61 1   
    61   58   66 1   
    62   59   60 2   
    63   59   69 1   
    64   61   62 1   
    65   61   67 1   
    66   61   68 1   
    67   62   63 1   
    68   62   64 1   
    69   69   70 1   
    70   69   73 1   
    71   70   71 1   
    72   70   74 1   
    73   70   75 1   
    74   71   72 2   
    75   71   76 1   
    76   76   77 1   
    77   76   85 1   
    78   77   78 1   
    79   77   80 1   
    80   77   86 1   
    81   78   79 2   
    82   78   93 1   
    83   80   81 1   
    84   80   87 1   
    85   80   88 1   
    86   81   82 1   
    87   81   89 1   
    88   81   90 1   
    89   82   83 1   
    90   82   84 2   
    91   83   91 1   
    92   83   92 1   
    93   93   94 1   
    94   93  100 1   
    95   94   95 1   
    96   94   97 1   
    97   94  101 1   
    98   95   96 2   
    99   95  109 1   
   100   97   98 1   
   101   97   99 1   
   102   97  102 1   
   103   98  103 1   
   104   98  104 1   
   105   98  105 1   
   106   99  106 1   
   107   99  107 1   
   108   99  108 1   
   109  109  110 1   
   110  109  117 1   
   111  110  111 1   
   112  110  113 1   
   113  110  118 1   
   114  111  112 2   
   115  111  123 1   
   116  113  114 1   
   117  113  119 1   
   118  113  120 1   
   119  114  115 1   
   120  114  116 2   
   121  115  121 1   
   122  115  122 1   
   123  123  124 1   
   124  123  135 1   
   125  124  125 1   
   126  124  127 1   
   127  124  136 1   
   128  125  126 2   
   129  125  144 1   
   130  127  128 1   
   131  127  137 1   
   132  127  138 1   
   133  128  129 ar  
   134  128  130 ar  
   135  129  131 ar  
   136  129  139 1   
   137  130  132 ar  
   138  130  140 1   
   139  131  133 ar  
   140  131  141 1   
   141  132  133 ar  
   142  132  142 1   
   143  133  134 1   
   144  134  143 1   
   145  144  145 1   
   146  144  153 1   
   147  145  146 1   
   148  145  148 1   
   149  145  154 1   
   150  146  147 2   
   151  146  159 1   
   152  148  149 1   
   153  148  155 1   
   154  148  156 1   
   155  149  150 1   
   156  149  157 1   
   157  149  158 1   
   158  150  151 1   
   159  150  152 1   
   160  159  160 1   
   161  159  168 1   
   162  160  161 1   
   163  160  163 1   
   164  160  169 1   
   165  161  162 2   
   166  161  174 1   
   167  163  164 1   
   168  163  170 1   
   169  163  171 1   
   170  164  165 1   
   171  164  172 1   
   172  164  173 1   
   173  165  166 1   
   174  165  167 1   
   175  174  175 1   
   176  174  179 1   
   177  175  176 1   
   178  175  177 1   
   179  175  178 1   
   180  181  182 1   
   181  181  183 1   
   182  184  185 1   
   183  184  186 1   
@<TRIPOS>SUBSTRUCTURE
     1 MOL         1 TEMP              0 ****  ****    0 ROOT
