@<TRIPOS>MOLECULE
MOL
  184   179     1     0     0
SMALL
resp


@<TRIPOS>ATOM
      1 C1          0.0360   -3.5820    4.6040 c3        1 MOL     -0.264474
      2 C2          1.1840   -2.7410    4.0850 c         1 MOL      0.612033
      3 O1          1.0320   -1.5900    3.6530 o         1 MOL     -0.525536
      4 H1         -0.9020   -3.2110    4.1910 hc        1 MOL      0.071385
      5 H2          0.1800   -4.6200    4.3020 hc        1 MOL      0.071385
      6 H3          0.0030   -3.5210    5.6920 hc        1 MOL      0.071385
      7 N1          2.4370   -3.1820    4.2460 n         1 MOL     -0.496593
      8 C3          3.6870   -2.4380    3.8790 c3        1 MOL      0.517396
      9 C4          4.3960   -2.8450    2.6170 c         1 MOL      0.375850
     10 O2          3.9730   -3.8660    1.9720 o         1 MOL     -0.580683
     11 C5          4.4990   -2.4950    5.1460 c3        1 MOL     -0.343310
     12 C6          5.4370   -1.3120    5.3490 c         1 MOL      0.751184
     13 O3          5.3590   -0.2830    4.6250 o         1 MOL     -0.726168
     14 O4          6.3810   -1.3870    6.1880 o         1 MOL     -0.726168
     15 H4          2.5700   -4.0630    4.7310 hn        1 MOL      0.230305
     16 H5          3.3990   -1.4060    3.7110 h1        1 MOL     -0.042243
     17 H6          5.1100   -3.4020    5.1790 hc        1 MOL      0.033273
     18 H7          3.8410   -2.5080    6.0160 hc        1 MOL      0.033273
     19 N2          5.4040   -2.0880    2.2330 n         1 MOL     -0.507254
     20 C7          6.3470   -2.5120    1.1670 c3        1 MOL      0.488489
     21 C8          6.0300   -1.6200   -0.0940 c         1 MOL      0.393315
     22 O5          5.3830   -0.5780    0.0570 o         1 MOL     -0.543235
     23 C9          7.8410   -2.3090    1.5010 c3        1 MOL     -0.424205
     24 H8          5.7040   -1.2320    2.6770 hn        1 MOL      0.308589
     25 H9          6.2190   -3.5340    0.8170 h1        1 MOL     -0.000552
     26 H10         8.3870   -2.9440    0.8060 hc        1 MOL      0.104626
     27 H11         8.2480   -1.2920    1.4650 hc        1 MOL      0.104626
     28 H12         7.9520   -2.7370    2.4970 hc        1 MOL      0.104626
     29 N3          6.5030   -1.9750   -1.2630 n         1 MOL     -0.529080
     30 C10         5.9950   -1.5910   -2.5790 c3        1 MOL      0.082283
     31 C11         6.4160   -0.1690   -3.0350 c         1 MOL      0.572405
     32 O6          6.5640    0.1910   -4.2340 o         1 MOL     -0.472574
     33 C12         6.4070   -2.5920   -3.6500 c3        1 MOL     -0.582404
     34 C13         6.0110   -4.0500   -3.3160 c         1 MOL      0.950150
     35 O7          6.7210   -4.8200   -2.6770 o         1 MOL     -0.768290
     36 O8          4.8980   -4.5410   -3.6290 o         1 MOL     -0.768290
     37 H13         7.0370   -2.8310   -1.2260 hn        1 MOL      0.314513
     38 H14         4.9130   -1.6480   -2.5160 h1        1 MOL      0.142106
     39 H15         7.4780   -2.5180   -3.8510 hc        1 MOL      0.132368
     40 H16         5.9060   -2.4280   -4.6080 hc        1 MOL      0.132368
     41 N4          6.7820    0.7260   -2.0490 n         1 MOL     -0.442324
     42 C14         7.2800    2.1280   -2.2640 c3        1 MOL      0.004587
     43 C15         6.3010    3.0410   -3.0440 c         1 MOL      0.304849
     44 O9          6.6480    3.9410   -3.8550 o         1 MOL     -0.511274
     45 H17         6.5790    0.4230   -1.1130 hn        1 MOL      0.302493
     46 H18         8.3230    2.1400   -2.5780 h1        1 MOL      0.069996
     47 H19         7.2420    2.5570   -1.2680 h1        1 MOL      0.069996
     48 N5          5.0190    2.7640   -2.8610 n         1 MOL      0.006105
     49 C16         3.8620    3.3600   -3.5500 c3        1 MOL     -0.093261
     50 C17         3.3930    4.6420   -2.8290 c         1 MOL      0.515835
     51 O10         2.9420    5.5540   -3.5720 o         1 MOL     -0.511790
     52 C18         2.7390    2.3260   -3.5170 c3        1 MOL     -0.290970
     53 C19         3.0730    1.0140   -4.1870 c         1 MOL      0.650828
     54 N6          2.9040   -0.1450   -3.5350 n         1 MOL     -0.801778
     55 O11         3.4610    0.8980   -5.3430 o         1 MOL     -0.550548
     56 H20         4.9030    1.9450   -2.2660 hn        1 MOL      0.098685
     57 H21         4.0450    3.5970   -4.6000 h1        1 MOL      0.136231
     58 H22         1.8690    2.7190   -4.0630 hc        1 MOL      0.125782
     59 H23         2.3600    2.0780   -2.5310 hc        1 MOL      0.125782
     60 H24         2.3450   -0.2240   -2.6870 hn        1 MOL      0.366240
     61 H25         3.1770   -0.9880   -4.0130 hn        1 MOL      0.366240
     62 N7          3.6010    4.7600   -1.5210 n         1 MOL     -0.468027
     63 C20         3.0990    5.8570   -0.7510 c3        1 MOL      0.040667
     64 C21         1.6270    5.7880   -0.3690 c         1 MOL      0.534520
     65 O12         0.8450    5.0710   -1.0140 o         1 MOL     -0.497685
     66 H26         4.1950    4.1040   -1.0260 hn        1 MOL      0.289734
     67 H27         3.2150    6.8390   -1.2040 h1        1 MOL      0.050666
     68 H28         3.6960    5.9190    0.1570 h1        1 MOL      0.050666
     69 N8          1.2210    6.5680    0.5950 n         1 MOL     -0.314632
     70 C22        -0.1900    7.0460    0.7590 c3        1 MOL     -0.297214
     71 C23        -1.0360    6.0730    1.5500 c         1 MOL      0.498898
     72 O13        -2.2530    6.2180    1.6740 o         1 MOL     -0.564715
     73 C24        -0.1910    8.4180    1.4740 c3        1 MOL      0.446906
     74 C25         0.0400    8.2740    3.0400 c3        1 MOL     -0.250443
     75 O14         0.6270    9.2890    0.8550 oh        1 MOL     -0.593336
     76 H29         1.9880    7.0260    1.0590 hn        1 MOL      0.189998
     77 H30        -0.6530    7.0820   -0.2320 h1        1 MOL      0.191273
     78 H31        -1.2070    8.8200    1.3620 h1        1 MOL      0.033438
     79 H32         1.5200    8.9790    1.0370 ho        1 MOL      0.370179
     80 H33        -0.8930    7.9870    3.5260 hc        1 MOL      0.056284
     81 H34         0.8690    7.6340    3.3640 hc        1 MOL      0.056284
     82 H35         0.3700    9.2230    3.4430 hc        1 MOL      0.056284
     83 N9         -0.4950    4.9340    1.9700 n         1 MOL     -0.227622
     84 C26        -1.0950    3.9030    2.7880 c3        1 MOL     -0.078189
     85 C27        -0.9150    2.6090    1.9800 c         1 MOL      0.601747
     86 O15         0.2140    2.2860    1.6930 o         1 MOL     -0.461754
     87 C28        -0.4870    3.8270    4.2240 c3        1 MOL      0.170217
     88 C29        -0.5310    5.1360    4.9620 c3        1 MOL     -0.157594
     89 C30        -1.1410    2.7620    5.1140 c3        1 MOL      0.047875
     90 C31        -1.9130    5.7360    5.3370 c3        1 MOL     -0.347730
     91 H36         0.4770    4.7880    1.7410 hn        1 MOL      0.152903
     92 H37        -2.1560    4.1430    2.8850 h1        1 MOL      0.072049
     93 H38         0.5350    3.4460    4.2220 hc        1 MOL     -0.003651
     94 H39        -0.0090    5.8240    4.3000 hc        1 MOL      0.053981
     95 H40         0.0280    5.0200    5.8890 hc        1 MOL      0.053981
     96 H41        -0.7000    1.7820    4.9610 hc        1 MOL     -0.012180
     97 H42        -1.2210    2.9720    6.1870 hc        1 MOL     -0.012180
     98 H43        -2.1620    2.6770    4.7450 hc        1 MOL     -0.012180
     99 H44        -2.5710    5.8270    4.4630 hc        1 MOL      0.100062
    100 H45        -2.3510    5.1900    6.1650 hc        1 MOL      0.100062
    101 H46        -1.6790    6.7900    5.5000 hc        1 MOL      0.100062
    102 N10        -2.0600    1.8940    1.6490 n         1 MOL     -0.583746
    103 C32        -2.0110    0.6830    0.7940 c3        1 MOL      0.027780
    104 C33        -3.3750    0.3710    0.0410 c         1 MOL      0.561547
    105 O16        -3.6800   -0.7800   -0.2650 o         1 MOL     -0.464012
    106 C34        -1.6330   -0.5110    1.6920 c3        1 MOL     -0.151857
    107 C35        -1.1900   -1.6880    0.8010 c         1 MOL      0.781886
    108 O17        -0.9870   -2.7870    1.3180 o         1 MOL     -0.760833
    109 O18        -0.9270   -1.5450   -0.4120 o         1 MOL     -0.760833
    110 H47        -2.9660    2.2070    1.9670 hn        1 MOL      0.311908
    111 H48        -1.1800    0.8790    0.1110 h1        1 MOL      0.076452
    112 H49        -2.5230   -0.8150    2.2600 hc        1 MOL      0.043780
    113 H50        -0.7700   -0.3910    2.3390 hc        1 MOL      0.043780
    114 N11        -4.1380    1.4000   -0.3250 n         1 MOL     -0.558173
    115 C36        -5.2600    1.1550   -1.2100 c3        1 MOL      0.403950
    116 C37        -6.2730    0.0530   -0.7370 c         1 MOL      0.215102
    117 O19        -6.7000    0.0940    0.4360 o         1 MOL     -0.535210
    118 C38        -6.0490    2.3930   -1.5900 c3        1 MOL     -0.232374
    119 C39        -6.9110    2.2140   -2.8340 ca        1 MOL      0.118635
    120 C40        -6.4630    2.5990   -4.0750 ca        1 MOL     -0.151141
    121 C41        -8.1870    1.6560   -2.7430 ca        1 MOL     -0.151141
    122 C42        -7.2000    2.3790   -5.2270 ca        1 MOL     -0.129065
    123 C43        -9.0990    1.6170   -3.7770 ca        1 MOL     -0.129065
    124 C44        -8.5840    2.0180   -5.0430 ca        1 MOL     -0.120327
    125 H51        -4.0230    2.3220    0.0620 hn        1 MOL      0.296700
    126 H52        -4.7940    0.7150   -2.0950 h1        1 MOL     -0.052732
    127 H53        -5.2910    3.1610   -1.7210 hc        1 MOL      0.077291
    128 H54        -6.7250    2.6630   -0.7840 hc        1 MOL      0.077291
    129 H55        -5.5120    3.0780   -4.2330 ha        1 MOL      0.113113
    130 H56        -8.5920    1.4040   -1.7700 ha        1 MOL      0.113113
    131 H57        -6.7870    2.4530   -6.2250 ha        1 MOL      0.122814
    132 H58       -10.1010    1.2420   -3.6440 ha        1 MOL      0.122814
    133 H59        -9.1210    1.9260   -5.9780 ha        1 MOL      0.092560
    134 N12        -6.7210   -0.8300   -1.6150 n         1 MOL      0.235943
    135 C45        -7.7480   -1.7980   -1.2640 c3        1 MOL     -0.052375
    136 C46        -7.4240   -2.7510   -0.0580 c         1 MOL      0.317102
    137 O20        -8.2920   -3.0270    0.7630 o         1 MOL     -0.502074
    138 C47        -8.0070   -2.6400   -2.5260 c3        1 MOL     -0.275252
    139 C48        -6.6860   -2.6040   -3.1880 c3        1 MOL     -0.014177
    140 C49        -6.0490   -1.2740   -2.8180 c3        1 MOL     -0.161366
    141 H60        -8.6560   -1.2320   -1.0390 h1        1 MOL      0.048305
    142 H61        -8.2240   -3.6890   -2.3140 hc        1 MOL      0.117559
    143 H62        -8.6150   -2.0340   -3.1940 hc        1 MOL      0.117559
    144 H63        -5.9840   -3.3650   -2.8610 hc        1 MOL      0.015482
    145 H64        -6.9330   -2.5460   -4.2450 hc        1 MOL      0.015482
    146 H65        -4.9930   -1.4380   -2.6260 h1        1 MOL      0.058141
    147 H66        -6.1360   -0.5970   -3.6710 h1        1 MOL      0.058141
    148 N13        -6.2040   -3.1400    0.1080 n         1 MOL     -0.079790
    149 C50        -5.6470   -3.8430    1.2440 c3        1 MOL     -0.243707
    150 C51        -5.8980   -2.9730    2.4950 c         1 MOL      0.364976
    151 O21        -6.2050   -3.5940    3.5670 o         1 MOL     -0.555358
    152 C52        -4.1000   -4.0740    1.0210 c3        1 MOL      0.154606
    153 C53        -3.8670   -5.1220   -0.0190 c3        1 MOL     -0.361280
    154 C54        -2.3430   -5.2270   -0.3350 c         1 MOL      0.813434
    155 O22        -1.5020   -5.5540    0.5160 o         1 MOL     -0.772320
    156 O23        -1.9200   -5.0100   -1.5180 o         1 MOL     -0.772320
    157 H67        -5.5010   -2.8180   -0.5430 hn        1 MOL      0.324481
    158 H68        -6.1040   -4.7970    1.4940 h1        1 MOL      0.142373
    159 H69        -3.6050   -4.3670    1.9440 hc        1 MOL      0.039080
    160 H70        -3.6050   -3.1610    0.6700 hc        1 MOL      0.039080
    161 H71        -4.4150   -4.9080   -0.9280 hc        1 MOL      0.054754
    162 H72        -4.2320   -6.0780    0.3550 hc        1 MOL      0.054754
    163 N14        -5.8550   -1.6400    2.5110 n         1 MOL      0.006242
    164 C55        -5.8910   -0.7720    3.7400 c3        1 MOL     -0.283766
    165 H73        -6.9080   -0.7360    4.1280 h1        1 MOL      0.102178
    166 H74        -5.2280   -1.1880    4.4990 h1        1 MOL      0.102178
    167 H75        -5.5640    0.2360    3.4840 h1        1 MOL      0.102178
    168 H76        -5.8240   -1.2500    1.5860 hn        1 MOL      0.116456
    169 Ca1         0.4350   -4.0410   -0.5240 Ca        1 MOL      1.723247
    170 O24         2.1420   -2.3000    0.4220 oh        1 MOL     -0.815929
    171 H77         2.8650   -2.6950    0.9090 ho        1 MOL      0.395151
    172 H78         2.2850   -1.3610    0.4910 ho        1 MOL      0.395151
    173 O25         1.8120   -5.5350    1.3440 oh        1 MOL     -0.815929
    174 H79         1.7280   -6.4810    1.4640 ho        1 MOL      0.395151
    175 H80         2.4770   -5.2730    1.9740 ho        1 MOL      0.395151
    176 O26         3.2470   -4.5860   -1.4480 oh        1 MOL     -0.815929
    177 H81         3.8140   -4.5280   -2.2160 ho        1 MOL      0.395151
    178 H82         3.3730   -5.4610   -1.1070 ho        1 MOL      0.395151
    179 O27         0.7540   -6.2800   -1.9780 oh        1 MOL     -0.815929
    180 H83         0.2200   -6.1760   -2.7650 ho        1 MOL      0.395151
    181 H84         1.4180   -6.9180   -2.2210 ho        1 MOL      0.395151
    182 O28         0.7190   -2.5390   -2.8040 oh        1 MOL     -0.815929
    183 H85        -0.1260   -2.2210   -3.1400 ho        1 MOL      0.395151
    184 H86         1.3000   -2.5060   -3.5630 ho        1 MOL      0.395151
@<TRIPOS>BOND
     1    1    2 1   
     2    1    4 1   
     3    1    5 1   
     4    1    6 1   
     5    2    3 2   
     6    2    7 1   
     7    7    8 1   
     8    7   15 1   
     9    8    9 1   
    10    8   11 1   
    11    8   16 1   
    12    9   10 2   
    13    9   19 1   
    14   11   12 1   
    15   11   17 1   
    16   11   18 1   
    17   12   13 1   
    18   12   14 1   
    19   19   20 1   
    20   19   24 1   
    21   20   21 1   
    22   20   23 1   
    23   20   25 1   
    24   21   22 2   
    25   21   29 1   
    26   23   26 1   
    27   23   27 1   
    28   23   28 1   
    29   29   30 1   
    30   29   37 1   
    31   30   31 1   
    32   30   33 1   
    33   30   38 1   
    34   31   32 2   
    35   31   41 1   
    36   33   34 1   
    37   33   39 1   
    38   33   40 1   
    39   34   35 1   
    40   34   36 1   
    41   41   42 1   
    42   41   45 1   
    43   42   43 1   
    44   42   46 1   
    45   42   47 1   
    46   43   44 2   
    47   43   48 1   
    48   48   49 1   
    49   48   56 1   
    50   49   50 1   
    51   49   52 1   
    52   49   57 1   
    53   50   51 2   
    54   50   62 1   
    55   52   53 1   
    56   52   58 1   
    57   52   59 1   
    58   53   54 1   
    59   53   55 2   
    60   54   60 1   
    61   54   61 1   
    62   62   63 1   
    63   62   66 1   
    64   63   64 1   
    65   63   67 1   
    66   63   68 1   
    67   64   65 2   
    68   64   69 1   
    69   69   70 1   
    70   69   76 1   
    71   70   71 1   
    72   70   73 1   
    73   70   77 1   
    74   71   72 2   
    75   71   83 1   
    76   73   74 1   
    77   73   75 1   
    78   73   78 1   
    79   74   80 1   
    80   74   81 1   
    81   74   82 1   
    82   75   79 1   
    83   83   84 1   
    84   83   91 1   
    85   84   85 1   
    86   84   87 1   
    87   84   92 1   
    88   85   86 2   
    89   85  102 1   
    90   87   88 1   
    91   87   89 1   
    92   87   93 1   
    93   88   90 1   
    94   88   94 1   
    95   88   95 1   
    96   89   96 1   
    97   89   97 1   
    98   89   98 1   
    99   90   99 1   
   100   90  100 1   
   101   90  101 1   
   102  102  103 1   
   103  102  110 1   
   104  103  104 1   
   105  103  106 1   
   106  103  111 1   
   107  104  105 2   
   108  104  114 1   
   109  106  107 1   
   110  106  112 1   
   111  106  113 1   
   112  107  108 1   
   113  107  109 1   
   114  114  115 1   
   115  114  125 1   
   116  115  116 1   
   117  115  118 1   
   118  115  126 1   
   119  116  117 2   
   120  116  134 1   
   121  118  119 1   
   122  118  127 1   
   123  118  128 1   
   124  119  120 ar  
   125  119  121 ar  
   126  120  122 ar  
   127  120  129 1   
   128  121  123 ar  
   129  121  130 1   
   130  122  124 ar  
   131  122  131 1   
   132  123  124 ar  
   133  123  132 1   
   134  124  133 1   
   135  134  135 1   
   136  134  140 1   
   137  135  136 1   
   138  135  138 1   
   139  135  141 1   
   140  136  137 2   
   141  136  148 1   
   142  138  139 1   
   143  138  142 1   
   144  138  143 1   
   145  139  140 1   
   146  139  144 1   
   147  139  145 1   
   148  140  146 1   
   149  140  147 1   
   150  148  149 1   
   151  148  157 1   
   152  149  150 1   
   153  149  152 1   
   154  149  158 1   
   155  150  151 2   
   156  150  163 1   
   157  152  153 1   
   158  152  159 1   
   159  152  160 1   
   160  153  154 1   
   161  153  161 1   
   162  153  162 1   
   163  154  155 1   
   164  154  156 1   
   165  163  164 1   
   166  163  168 1   
   167  164  165 1   
   168  164  166 1   
   169  164  167 1   
   170  170  171 1   
   171  170  172 1   
   172  173  174 1   
   173  173  175 1   
   174  176  177 1   
   175  176  178 1   
   176  179  180 1   
   177  179  181 1   
   178  182  183 1   
   179  182  184 1   
@<TRIPOS>SUBSTRUCTURE
     1 MOL         1 TEMP              0 ****  ****    0 ROOT
