@<TRIPOS>MOLECULE
MOL
  175   173     1     0     0
SMALL
resp


@<TRIPOS>ATOM
      1 C1         -6.6160    7.7150    1.3050 c3        1 MOL     -0.320818
      2 C2         -7.6390    6.8430    0.5880 c         1 MOL      0.696983
      3 O1         -7.7220    6.9810   -0.6180 o         1 MOL     -0.597347
      4 H1         -7.1080    8.2680    2.1050 hc        1 MOL      0.073417
      5 H2         -5.8320    7.0860    1.7270 hc        1 MOL      0.073417
      6 H3         -6.1760    8.4170    0.5970 hc        1 MOL      0.073417
      7 N1         -8.3950    5.9230    1.1690 n         1 MOL     -0.492625
      8 C3         -9.3150    4.9610    0.3710 c3        1 MOL      0.002827
      9 C4         -8.5530    3.8280   -0.3380 c         1 MOL      0.595259
     10 O2         -9.1090    3.0890   -1.1440 o         1 MOL     -0.518160
     11 C5        -10.4990    4.3950    1.3240 c3        1 MOL     -0.166674
     12 C6        -11.7450    4.2130    0.5410 c         1 MOL      0.741575
     13 O3        -12.0730    5.1800   -0.1290 o         1 MOL     -0.735184
     14 O4        -12.3790    3.1780    0.6760 o         1 MOL     -0.735184
     15 H4         -8.3740    5.8610    2.1730 hn        1 MOL      0.256288
     16 H5         -9.7750    5.5630   -0.4220 h1        1 MOL      0.115467
     17 H6        -10.6500    5.0520    2.1780 hc        1 MOL      0.015169
     18 H7        -10.3250    3.3820    1.6780 hc        1 MOL      0.015169
     19 N2         -7.2250    3.7830   -0.1210 n         1 MOL     -0.590262
     20 C7         -6.3600    2.7400   -0.8710 c3        1 MOL      0.401952
     21 C8         -5.2290    2.0840    0.0010 c         1 MOL      0.354167
     22 O5         -4.8140    2.6620    1.0070 o         1 MOL     -0.522069
     23 C9         -5.7270    3.4850   -2.1200 c3        1 MOL     -0.069564
     24 H8         -6.8670    4.2550    0.6940 hn        1 MOL      0.261882
     25 H9         -7.0820    2.0500   -1.2900 h1        1 MOL     -0.046609
     26 H10        -5.0480    4.3060   -1.8690 hc        1 MOL      0.025349
     27 H11        -5.1710    2.8470   -2.8020 hc        1 MOL      0.025349
     28 H12        -6.5140    3.8880   -2.7620 hc        1 MOL      0.025349
     29 N3         -4.6240    0.9430   -0.3120 n         1 MOL     -0.331227
     30 C10        -5.0210   -0.0160   -1.3440 c3        1 MOL     -0.015262
     31 C11        -5.2720   -1.4050   -0.7370 c         1 MOL      0.547473
     32 O6         -4.6210   -1.7620    0.2680 o         1 MOL     -0.565917
     33 C12        -4.0060   -0.1100   -2.4310 c3        1 MOL     -0.298076
     34 C13        -2.5600   -0.4100   -2.0210 c         1 MOL      0.731385
     35 O7         -1.8820    0.2400   -1.2040 o         1 MOL     -0.735106
     36 O8         -2.0280   -1.5000   -2.4710 o         1 MOL     -0.735106
     37 H13        -3.8380    0.6320    0.2250 hn        1 MOL      0.307665
     38 H14        -5.9360    0.3630   -1.7700 h1        1 MOL      0.076600
     39 H15        -3.8870    0.8440   -2.9200 hc        1 MOL      0.073044
     40 H16        -4.4030   -0.7570   -3.2140 hc        1 MOL      0.073044
     41 N4         -6.1840   -2.2360   -1.2750 n         1 MOL     -0.466235
     42 C14        -6.8990   -3.2700   -0.5770 c3        1 MOL      0.055895
     43 C15        -6.6170   -4.5830   -1.2750 c         1 MOL      0.530424
     44 O9         -7.5900   -5.2740   -1.6320 o         1 MOL     -0.569377
     45 H17        -6.6210   -1.9730   -2.1450 hn        1 MOL      0.312504
     46 H18        -7.9820   -3.1800   -0.5610 h1        1 MOL      0.068557
     47 H19        -6.5860   -3.3470    0.4640 h1        1 MOL      0.068557
     48 N5         -5.3940   -5.0300   -1.5740 n         1 MOL     -0.502880
     49 C16        -4.0740   -4.6160   -1.0480 c3        1 MOL      0.016530
     50 C17        -3.9130   -5.1380    0.4140 c         1 MOL      0.573018
     51 O10        -4.1110   -6.3100    0.7140 o         1 MOL     -0.553941
     52 C18        -3.0110   -5.2320   -2.0100 c3        1 MOL     -0.039703
     53 C19        -1.6410   -4.6450   -1.8630 c         1 MOL      0.556599
     54 N6         -0.7360   -5.0770   -2.7600 n         1 MOL     -0.711287
     55 O11        -1.3230   -3.8430   -0.9990 o         1 MOL     -0.547687
     56 H20        -5.3710   -5.7080   -2.3210 hn        1 MOL      0.307505
     57 H21        -3.9220   -3.5360   -1.0360 h1        1 MOL      0.107841
     58 H22        -3.3000   -4.9080   -3.0110 hc        1 MOL      0.030570
     59 H23        -2.9970   -6.3200   -1.9300 hc        1 MOL      0.030570
     60 H24        -1.0190   -5.7880   -3.4150 hn        1 MOL      0.334042
     61 H25         0.2000   -4.7000   -2.7580 hn        1 MOL      0.334042
     62 N7         -3.6200   -4.2380    1.3930 n         1 MOL     -0.283314
     63 C20        -3.4510   -4.7030    2.7950 c3        1 MOL     -0.247758
     64 C21        -1.9670   -5.1190    2.9610 c         1 MOL      0.600402
     65 O12        -1.7200   -5.7660    3.9600 o         1 MOL     -0.553035
     66 H26        -3.6010   -3.2650    1.1260 hn        1 MOL      0.287624
     67 H27        -4.1470   -5.4840    3.1090 h1        1 MOL      0.121119
     68 H28        -3.5590   -3.7660    3.3470 h1        1 MOL      0.121119
     69 N8         -1.0070   -4.8480    2.0010 n         1 MOL     -0.260871
     70 C22         0.4600   -5.1240    2.1310 c3        1 MOL     -0.324017
     71 C23         1.3060   -3.8540    1.7680 c         1 MOL      0.624093
     72 O13         1.0710   -3.1370    0.8090 o         1 MOL     -0.579700
     73 C24         0.9850   -6.2520    1.1510 c3        1 MOL      0.424488
     74 C25         0.3340   -7.4420    1.6530 c3        1 MOL     -0.387716
     75 O14         0.6850   -6.0860   -0.2340 oh        1 MOL     -0.651428
     76 H29        -1.1540   -4.2690    1.1910 hn        1 MOL      0.231737
     77 H30         0.7230   -5.3860    3.1530 h1        1 MOL      0.117303
     78 H31         2.0800   -6.3390    1.2070 h1        1 MOL     -0.004518
     79 H32         1.3300   -5.5250   -0.6600 ho        1 MOL      0.488734
     80 H33        -0.7510   -7.3280    1.5970 hc        1 MOL      0.100722
     81 H34         0.6790   -8.3670    1.1890 hc        1 MOL      0.100722
     82 H35         0.6090   -7.6260    2.6930 hc        1 MOL      0.100722
     83 N9          2.3150   -3.5410    2.5090 n         1 MOL     -0.437632
     84 C26         3.2280   -2.4400    2.2880 c3        1 MOL      0.039580
     85 C27         4.1190   -2.8110    1.0650 c         1 MOL      0.402257
     86 O15         5.0240   -3.6650    1.2090 o         1 MOL     -0.550461
     87 C28         4.2050   -2.1350    3.5140 c3        1 MOL      0.250771
     88 C29         5.1730   -0.9040    3.3120 c3        1 MOL     -0.144734
     89 C30         3.5900   -2.0680    4.8660 c3        1 MOL     -0.419435
     90 C31         4.4840    0.5240    3.4450 c3        1 MOL     -0.070328
     91 H36         2.5960   -4.1380    3.2710 hn        1 MOL      0.275569
     92 H37         2.6530   -1.5250    2.1330 h1        1 MOL      0.078871
     93 H38         4.8950   -2.9780    3.5650 hc        1 MOL     -0.026059
     94 H39         5.6420   -1.0120    2.3350 hc        1 MOL      0.035790
     95 H40         5.9180   -0.9320    4.1000 hc        1 MOL      0.035790
     96 H41         2.8420   -1.2870    4.9290 hc        1 MOL      0.102634
     97 H42         3.0870   -2.9940    5.1390 hc        1 MOL      0.102634
     98 H43         4.4150   -1.7770    5.5180 hc        1 MOL      0.102634
     99 H44         3.9320    0.6790    2.5180 hc        1 MOL      0.012837
    100 H45         3.9200    0.5990    4.3690 hc        1 MOL      0.012837
    101 H46         5.1900    1.3590    3.4880 hc        1 MOL      0.012837
    102 N10         3.9750   -2.1250   -0.0920 n         1 MOL     -0.075475
    103 C32         4.7550   -2.4410   -1.3130 c3        1 MOL      0.117538
    104 C33         5.7370   -1.3030   -1.7240 c         1 MOL      0.541100
    105 O16         6.4190   -1.4880   -2.7160 o         1 MOL     -0.557199
    106 C34         3.8080   -2.7190   -2.5480 c3        1 MOL     -0.411613
    107 C35         2.6730   -3.6590   -2.1720 c         1 MOL      0.819099
    108 O17         2.8300   -4.8100   -1.7010 o         1 MOL     -0.734704
    109 O18         1.4910   -3.2020   -2.1860 o         1 MOL     -0.734704
    110 H47         3.3310   -1.3580   -0.1970 hn        1 MOL      0.023475
    111 H48         5.3460   -3.3180   -1.0500 h1        1 MOL      0.071171
    112 H49         4.3920   -3.2240   -3.3210 hc        1 MOL      0.114407
    113 H50         3.3850   -1.7740   -2.9060 hc        1 MOL      0.114407
    114 N11         5.8300   -0.2310   -0.9610 n         1 MOL     -0.627626
    115 C36         6.8130    0.8150   -1.1670 c3        1 MOL      0.296219
    116 C37         6.4490    2.1280   -0.4670 c         1 MOL      0.297951
    117 O19         6.1360    2.0650    0.7020 o         1 MOL     -0.471211
    118 C38         8.1680    0.1690   -0.5210 c3        1 MOL     -0.386329
    119 C39         9.2640    1.2540   -0.4720 ca        1 MOL      0.234721
    120 C40         9.5880    1.8640    0.7320 ca        1 MOL     -0.239562
    121 C41         9.9850    1.5990   -1.6700 ca        1 MOL     -0.239562
    122 C42        10.6240    2.8120    0.7740 ca        1 MOL     -0.048829
    123 C43        11.0240    2.5460   -1.5530 ca        1 MOL     -0.048829
    124 C44        11.4120    3.1460   -0.3120 ca        1 MOL     -0.193281
    125 H51         5.1740   -0.0760   -0.2150 hn        1 MOL      0.419083
    126 H52         7.0340    1.0150   -2.2180 h1        1 MOL      0.031735
    127 H53         8.4900   -0.6860   -1.1170 hc        1 MOL      0.141517
    128 H54         8.0040   -0.1260    0.5130 hc        1 MOL      0.141517
    129 H55         8.9550    1.7840    1.5950 ha        1 MOL      0.139290
    130 H56         9.6800    1.2360   -2.6440 ha        1 MOL      0.139290
    131 H57        10.7210    3.3400    1.7090 ha        1 MOL      0.087147
    132 H58        11.6270    2.8240   -2.4030 ha        1 MOL      0.087147
    133 H59        12.1510    3.9160   -0.1720 ha        1 MOL      0.125684
    134 N12         6.4710    3.2840   -1.1340 n         1 MOL     -0.052852
    135 C45         6.3500    4.6070   -0.5030 c3        1 MOL     -0.055122
    136 C46         4.8800    5.0830   -0.3250 c         1 MOL      0.440668
    137 O20         4.6150    6.2920   -0.3660 o         1 MOL     -0.525963
    138 C47         7.2440    5.5100   -1.3980 c3        1 MOL     -0.074751
    139 C48         6.9510    4.9600   -2.8040 c3        1 MOL     -0.016611
    140 C49         6.7780    3.4640   -2.5890 c3        1 MOL     -0.162273
    141 H60         6.6230    4.5520    0.5590 h1        1 MOL      0.087731
    142 H61         7.0130    6.5770   -1.2790 hc        1 MOL      0.052942
    143 H62         8.2650    5.2520   -1.1290 hc        1 MOL      0.052942
    144 H63         6.0520    5.3930   -3.2390 hc        1 MOL      0.046777
    145 H64         7.8040    5.0860   -3.4670 hc        1 MOL      0.046777
    146 H65         6.0070    2.9730   -3.1860 h1        1 MOL      0.086488
    147 H66         7.6800    2.9150   -2.8440 h1        1 MOL      0.086488
    148 N13         3.8220    4.2910   -0.1550 n         1 MOL     -0.211863
    149 C50         2.4240    4.7090    0.2470 c3        1 MOL     -0.240070
    150 C51         2.3470    5.3110    1.7200 c         1 MOL      0.528697
    151 O21         1.4960    6.1410    2.0440 o         1 MOL     -0.512765
    152 C52         1.5230    3.5410   -0.0200 c3        1 MOL      0.126356
    153 C53         1.7430    2.3250    0.9520 c3        1 MOL     -0.181820
    154 C54         1.2740    0.9810    0.3610 c         1 MOL      0.666312
    155 O22         2.0290    0.2640   -0.3440 o         1 MOL     -0.684330
    156 O23         0.1330    0.5330    0.6880 o         1 MOL     -0.684330
    157 H67         4.0180    3.3200   -0.3650 hn        1 MOL      0.159609
    158 H68         2.1380    5.5550   -0.3840 h1        1 MOL      0.150341
    159 H69         1.5830    3.1900   -1.0490 hc        1 MOL      0.031415
    160 H70         0.5440    4.0060    0.0890 hc        1 MOL      0.031415
    161 H71         1.2700    2.5030    1.9200 hc        1 MOL      0.036447
    162 H72         2.8120    2.1780    1.1190 hc        1 MOL      0.036447
    163 N14         3.3920    5.1060    2.5590 n         1 MOL     -0.279660
    164 C55         3.4110    5.5750    3.9700 c3        1 MOL     -0.079649
    165 H73         2.5660    6.2430    4.1410 h1        1 MOL      0.068472
    166 H74         3.3380    4.7190    4.6400 h1        1 MOL      0.068472
    167 H75         4.3410    6.1100    4.1630 h1        1 MOL      0.068472
    168 H76         4.1640    4.5520    2.2260 hn        1 MOL      0.223495
    169 Ca1         0.0440   -1.5400   -0.9990 Ca        1 MOL      1.732938
    170 O24         1.1980   -0.2810   -3.3870 oh        1 MOL     -0.903231
    171 H77         2.0680    0.0090   -3.6790 ho        1 MOL      0.424957
    172 H78         0.6090    0.4150   -3.6490 ho        1 MOL      0.424957
    173 O25        -1.8530   -1.3180    1.1690 oh        1 MOL     -0.903231
    174 H79        -1.5030   -0.5460    1.6290 ho        1 MOL      0.424957
    175 H80        -2.8030   -1.2460    1.2680 ho        1 MOL      0.424957
@<TRIPOS>BOND
     1    1    2 1   
     2    1    4 1   
     3    1    5 1   
     4    1    6 1   
     5    2    3 2   
     6    2    7 1   
     7    7    8 1   
     8    7   15 1   
     9    8    9 1   
    10    8   11 1   
    11    8   16 1   
    12    9   10 2   
    13    9   19 1   
    14   11   12 1   
    15   11   17 1   
    16   11   18 1   
    17   12   13 1   
    18   12   14 1   
    19   19   20 1   
    20   19   24 1   
    21   20   21 1   
    22   20   23 1   
    23   20   25 1   
    24   21   22 2   
    25   21   29 1   
    26   23   26 1   
    27   23   27 1   
    28   23   28 1   
    29   29   30 1   
    30   29   37 1   
    31   30   31 1   
    32   30   33 1   
    33   30   38 1   
    34   31   32 2   
    35   31   41 1   
    36   33   34 1   
    37   33   39 1   
    38   33   40 1   
    39   34   35 1   
    40   34   36 1   
    41   41   42 1   
    42   41   45 1   
    43   42   43 1   
    44   42   46 1   
    45   42   47 1   
    46   43   44 2   
    47   43   48 1   
    48   48   49 1   
    49   48   56 1   
    50   49   50 1   
    51   49   52 1   
    52   49   57 1   
    53   50   51 2   
    54   50   62 1   
    55   52   53 1   
    56   52   58 1   
    57   52   59 1   
    58   53   54 1   
    59   53   55 2   
    60   54   60 1   
    61   54   61 1   
    62   62   63 1   
    63   62   66 1   
    64   63   64 1   
    65   63   67 1   
    66   63   68 1   
    67   64   65 2   
    68   64   69 1   
    69   69   70 1   
    70   69   76 1   
    71   70   71 1   
    72   70   73 1   
    73   70   77 1   
    74   71   72 2   
    75   71   83 1   
    76   73   74 1   
    77   73   75 1   
    78   73   78 1   
    79   74   80 1   
    80   74   81 1   
    81   74   82 1   
    82   75   79 1   
    83   83   84 1   
    84   83   91 1   
    85   84   85 1   
    86   84   87 1   
    87   84   92 1   
    88   85   86 2   
    89   85  102 1   
    90   87   88 1   
    91   87   89 1   
    92   87   93 1   
    93   88   90 1   
    94   88   94 1   
    95   88   95 1   
    96   89   96 1   
    97   89   97 1   
    98   89   98 1   
    99   90   99 1   
   100   90  100 1   
   101   90  101 1   
   102  102  103 1   
   103  102  110 1   
   104  103  104 1   
   105  103  106 1   
   106  103  111 1   
   107  104  105 2   
   108  104  114 1   
   109  106  107 1   
   110  106  112 1   
   111  106  113 1   
   112  107  108 1   
   113  107  109 1   
   114  114  115 1   
   115  114  125 1   
   116  115  116 1   
   117  115  118 1   
   118  115  126 1   
   119  116  117 2   
   120  116  134 1   
   121  118  119 1   
   122  118  127 1   
   123  118  128 1   
   124  119  120 ar  
   125  119  121 ar  
   126  120  122 ar  
   127  120  129 1   
   128  121  123 ar  
   129  121  130 1   
   130  122  124 ar  
   131  122  131 1   
   132  123  124 ar  
   133  123  132 1   
   134  124  133 1   
   135  134  135 1   
   136  134  140 1   
   137  135  136 1   
   138  135  138 1   
   139  135  141 1   
   140  136  137 2   
   141  136  148 1   
   142  138  139 1   
   143  138  142 1   
   144  138  143 1   
   145  139  140 1   
   146  139  144 1   
   147  139  145 1   
   148  140  146 1   
   149  140  147 1   
   150  148  149 1   
   151  148  157 1   
   152  149  150 1   
   153  149  152 1   
   154  149  158 1   
   155  150  151 2   
   156  150  163 1   
   157  152  153 1   
   158  152  159 1   
   159  152  160 1   
   160  153  154 1   
   161  153  161 1   
   162  153  162 1   
   163  154  155 1   
   164  154  156 1   
   165  163  164 1   
   166  163  168 1   
   167  164  165 1   
   168  164  166 1   
   169  164  167 1   
   170  170  171 1   
   171  170  172 1   
   172  173  174 1   
   173  173  175 1   
@<TRIPOS>SUBSTRUCTURE
     1 MOL         1 TEMP              0 ****  ****    0 ROOT
