@<TRIPOS>MOLECULE
MOL
  198   191     1     0     0
SMALL
resp


@<TRIPOS>ATOM
      1 C1         -4.7290   -5.9440   -0.7760 c3        1 MOL     -0.330282
      2 C2         -6.2940   -5.8440   -0.7770 c         1 MOL      0.543620
      3 O1         -7.0640   -6.4210    0.0390 o         1 MOL     -0.553236
      4 H1         -4.3450   -5.6460   -1.7520 hc        1 MOL      0.090808
      5 H2         -4.3230   -5.2830   -0.0100 hc        1 MOL      0.090808
      6 H3         -4.4300   -6.9710   -0.5670 hc        1 MOL      0.090808
      7 N1         -6.7840   -4.9270   -1.5520 n         1 MOL     -0.460174
      8 C3         -8.1390   -4.4080   -1.5560 c3        1 MOL     -0.029408
      9 C4         -8.4130   -3.5480   -0.2740 c         1 MOL      0.722684
     10 O2         -7.8270   -3.6340    0.7650 o         1 MOL     -0.546974
     11 C5         -9.2130   -5.4420   -1.9310 c3        1 MOL     -0.022003
     12 C6        -10.5910   -4.9820   -2.2330 c         1 MOL      0.677011
     13 O3        -10.7640   -3.7670   -2.5130 o         1 MOL     -0.703186
     14 O4        -11.4990   -5.8050   -2.2870 o         1 MOL     -0.703186
     15 H4         -6.1500   -4.3490   -2.0720 hn        1 MOL      0.310554
     16 H5         -8.0850   -3.7430   -2.4130 h1        1 MOL      0.036268
     17 H6         -9.3840   -6.1660   -1.1340 hc        1 MOL      0.022399
     18 H7         -8.9870   -6.1160   -2.7620 hc        1 MOL      0.022399
     19 N2         -9.4620   -2.6560   -0.3230 n         1 MOL     -0.445255
     20 C7         -9.9340   -1.5950    0.5790 c3        1 MOL      0.009007
     21 C8         -8.9380   -0.4380    0.8680 c         1 MOL      0.555577
     22 O5         -9.2810    0.5180    1.4830 o         1 MOL     -0.563247
     23 C9        -10.4590   -2.2830    1.9100 c3        1 MOL     -0.137475
     24 C10       -11.7860   -3.0960    1.7080 c3        1 MOL      0.077927
     25 C11       -12.0430   -4.1310    2.8770 c3        1 MOL     -0.109797
     26 C12       -12.0990   -3.5590    4.2500 c3        1 MOL      0.168274
     27 N3        -11.8070   -4.5260    5.3330 n4        1 MOL     -0.445347
     28 H8         -9.9520   -2.5930   -1.2060 hn        1 MOL      0.211335
     29 H9        -10.8260   -1.1300    0.1540 h1        1 MOL      0.113389
     30 H10       -10.7840   -1.5080    2.6050 hc        1 MOL      0.057925
     31 H11        -9.7490   -2.9720    2.3800 hc        1 MOL      0.057925
     32 H12       -11.6390   -3.8140    0.9060 hc        1 MOL      0.012708
     33 H13       -12.7010   -2.4970    1.7380 hc        1 MOL      0.012708
     34 H14       -11.2210   -4.8280    2.7310 hc        1 MOL      0.057333
     35 H15       -13.0100   -4.6100    2.7320 hc        1 MOL      0.057333
     36 H16       -13.0930   -3.1480    4.4030 hx        1 MOL      0.044219
     37 H17       -11.4580   -2.6780    4.2930 hx        1 MOL      0.044219
     38 H18       -12.4430   -5.3080    5.4130 hn        1 MOL      0.330538
     39 H19       -10.9390   -5.0330    5.2120 hn        1 MOL      0.330538
     40 H20       -11.8490   -4.2220    6.2950 hn        1 MOL      0.330538
     41 N4         -7.6550   -0.5490    0.5000 n         1 MOL     -0.572665
     42 C13        -6.6470    0.5240    0.5740 c3        1 MOL      0.559298
     43 C14        -6.1850    1.1520   -0.7850 c         1 MOL      0.387474
     44 O6         -5.6860    0.4050   -1.5860 o         1 MOL     -0.535569
     45 C15        -5.4600   -0.0390    1.3830 c3        1 MOL     -0.285993
     46 C16        -4.4430    1.0170    1.6310 c         1 MOL      0.651746
     47 O7         -4.6710    2.2210    1.7960 o         1 MOL     -0.705146
     48 O8         -3.2350    0.6900    1.6620 o         1 MOL     -0.705146
     49 H21        -7.3210   -1.4030    0.0700 hn        1 MOL      0.205644
     50 H22        -7.0630    1.3240    1.1900 h1        1 MOL     -0.040090
     51 H23        -5.0220   -0.8790    0.8540 hc        1 MOL      0.087303
     52 H24        -5.8640   -0.2570    2.3680 hc        1 MOL      0.087303
     53 N5         -6.2890    2.4420   -1.1640 n         1 MOL     -0.392110
     54 C17        -6.6760    3.7010   -0.4320 c3        1 MOL     -0.024833
     55 C18        -5.6830    4.8010   -0.7780 c         1 MOL      0.487842
     56 O9         -5.7210    5.5130   -1.7890 o         1 MOL     -0.568249
     57 H25        -6.1010    2.5890   -2.1410 hn        1 MOL      0.304527
     58 H26        -6.6620    3.4810    0.6310 h1        1 MOL      0.067632
     59 H27        -7.6620    4.0560   -0.7140 h1        1 MOL      0.067632
     60 N6         -4.6960    5.0240    0.1160 n         1 MOL     -0.182558
     61 C19        -3.5670    5.9540   -0.1140 c3        1 MOL      0.071585
     62 C20        -2.2860    5.1590   -0.4440 c         1 MOL      0.354491
     63 O10        -2.0330    4.1310    0.1770 o         1 MOL     -0.485944
     64 C21        -3.4020    6.9270    1.0670 c3        1 MOL     -0.217106
     65 C22        -3.4960    6.3900    2.5110 c         1 MOL      0.752725
     66 O11        -3.4410    5.1600    2.7250 o         1 MOL     -0.691975
     67 O12        -3.7520    7.2420    3.3600 o         1 MOL     -0.691975
     68 H28        -4.7880    4.3700    0.8740 hn        1 MOL      0.100809
     69 H29        -3.6280    6.5430   -1.0340 h1        1 MOL      0.038128
     70 H30        -4.2880    7.5450    0.9070 hc        1 MOL      0.051007
     71 H31        -2.5380    7.5080    0.7570 hc        1 MOL      0.051007
     72 N7         -1.4090    5.6800   -1.3410 n         1 MOL     -0.284745
     73 C23        -0.1570    5.1320   -1.7030 c3        1 MOL     -0.119506
     74 C24        -0.2040    3.9130   -2.6400 c         1 MOL      0.542126
     75 O13         0.3560    4.0120   -3.7150 o         1 MOL     -0.547686
     76 H32        -1.7880    6.4680   -1.8340 hn        1 MOL      0.289644
     77 H33         0.3940    4.8130   -0.8110 h1        1 MOL      0.078990
     78 H34         0.3430    5.9560   -2.2170 h1        1 MOL      0.078990
     79 N8         -1.0780    2.8720   -2.4330 n         1 MOL     -0.364520
     80 C25        -1.1160    1.6560   -3.2720 c3        1 MOL      0.108776
     81 C26        -0.6400    0.4180   -2.4180 c         1 MOL      0.345798
     82 O14        -0.9840    0.3470   -1.2010 o         1 MOL     -0.474213
     83 C27        -2.5160    1.3790   -3.8550 c3        1 MOL      0.507731
     84 C28        -3.4330    2.5330   -3.9290 c3        1 MOL     -0.392510
     85 O15        -2.3930    0.8460   -5.1020 oh        1 MOL     -0.694943
     86 H35        -1.5830    2.9340   -1.5610 hn        1 MOL      0.160357
     87 H36        -0.5170    1.7230   -4.1730 h1        1 MOL      0.022192
     88 H37        -3.0590    0.7060   -3.2030 h1        1 MOL      0.029296
     89 H38        -2.1750    1.5630   -5.7030 ho        1 MOL      0.410222
     90 H39        -3.6410    2.8820   -2.9250 hc        1 MOL      0.087604
     91 H40        -2.9600    3.4030   -4.3690 hc        1 MOL      0.087604
     92 H41        -4.4320    2.3290   -4.3280 hc        1 MOL      0.087604
     93 N9          0.2090   -0.3930   -2.9940 n         1 MOL     -0.251318
     94 C29         0.7100   -1.5750   -2.3140 c3        1 MOL     -0.179094
     95 C30         1.9670   -1.2340   -1.5380 c         1 MOL      0.480176
     96 O16         2.2730   -2.0210   -0.6280 o         1 MOL     -0.513867
     97 C31         0.8660   -2.7980   -3.2180 c3        1 MOL      0.186994
     98 C32         2.0000   -2.7830   -4.3760 c3        1 MOL      0.080864
     99 C33        -0.4280   -3.1800   -3.9600 c3        1 MOL     -0.281407
    100 C34         2.4390   -4.1790   -4.9100 c3        1 MOL     -0.245728
    101 H42         0.4950   -0.2520   -3.9540 hn        1 MOL      0.231452
    102 H43        -0.1000   -1.8690   -1.6450 h1        1 MOL      0.167272
    103 H44         1.1440   -3.5670   -2.4960 hc        1 MOL      0.015013
    104 H45         2.8850   -2.2820   -3.9790 hc        1 MOL     -0.011928
    105 H46         1.6640   -2.1740   -5.2150 hc        1 MOL     -0.011928
    106 H47        -1.2850   -3.2430   -3.2880 hc        1 MOL      0.068034
    107 H48        -0.5300   -2.4830   -4.7890 hc        1 MOL      0.068034
    108 H49        -0.2680   -4.1320   -4.4850 hc        1 MOL      0.068034
    109 H50         3.1390   -4.0510   -5.7450 hc        1 MOL      0.067550
    110 H51         2.8810   -4.8260   -4.1480 hc        1 MOL      0.067550
    111 H52         1.5640   -4.7500   -5.2210 hc        1 MOL      0.067550
    112 N10         2.5920   -0.0620   -1.7850 n         1 MOL     -0.282797
    113 C35         3.6960    0.5260   -1.0180 c3        1 MOL     -0.008209
    114 C36         4.8220    1.0120   -1.9390 c         1 MOL      0.585271
    115 O17         4.5190    1.3530   -3.0640 o         1 MOL     -0.526487
    116 C37         3.2650    1.6300   -0.0180 c3        1 MOL      0.246522
    117 C38         2.5330    2.8390   -0.6910 c3        1 MOL     -0.418871
    118 O18         2.4660    0.9590    0.9220 oh        1 MOL     -0.487501
    119 H53         2.2830    0.5270   -2.5460 hn        1 MOL      0.205571
    120 H54         4.0900   -0.3120   -0.4460 h1        1 MOL      0.054380
    121 H55         4.1330    2.0150    0.5250 h1        1 MOL      0.011776
    122 H56         2.9790    0.9800    1.7290 ho        1 MOL      0.362056
    123 H57         2.1280    3.6220   -0.0450 hc        1 MOL      0.112644
    124 H58         3.2040    3.3290   -1.3990 hc        1 MOL      0.112644
    125 H59         1.6800    2.4510   -1.2410 hc        1 MOL      0.112644
    126 N11         6.0580    1.1160   -1.4270 n         1 MOL     -0.499765
    127 C39         7.2120    1.6230   -2.1770 c3        1 MOL      0.000938
    128 C40         8.5300    0.9000   -1.7510 c         1 MOL      0.601757
    129 O19         9.0660    0.3020   -2.6530 o         1 MOL     -0.567028
    130 C41         7.4790    3.1350   -1.9330 c3        1 MOL      0.200890
    131 C42         8.6270    3.7280   -2.7530 c3        1 MOL     -0.324069
    132 O20         7.7000    3.4530   -0.5630 oh        1 MOL     -0.664333
    133 H60         6.2240    0.7390   -0.5050 hn        1 MOL      0.282431
    134 H61         7.0030    1.4920   -3.2410 h1        1 MOL      0.126507
    135 H62         6.5580    3.6690   -2.1620 h1        1 MOL      0.057335
    136 H63         7.6110    4.4080   -0.5550 ho        1 MOL      0.429258
    137 H64         8.5830    4.8150   -2.6740 hc        1 MOL      0.090843
    138 H65         9.5470    3.3130   -2.3560 hc        1 MOL      0.090843
    139 H66         8.4560    3.4140   -3.7770 hc        1 MOL      0.090843
    140 N12         8.8980    0.8000   -0.4980 n         1 MOL     -0.376484
    141 C43         9.9510   -0.1010    0.1050 c3        1 MOL      0.147863
    142 C44         9.3810   -1.0630    1.0510 c         1 MOL      0.221189
    143 O21         8.5330   -0.6530    1.8750 o         1 MOL     -0.470607
    144 C45        11.1110    0.7320    0.6670 c3        1 MOL     -0.534983
    145 C46        12.3240   -0.1160    1.0970 c3        1 MOL      0.491298
    146 C47        13.5710    0.5870    1.5520 c3        1 MOL     -0.352633
    147 C48        14.4800   -0.4220    2.1780 c3        1 MOL     -0.024761
    148 N13        15.2660   -1.2080    1.2190 n4        1 MOL     -0.561569
    149 H67         8.2180    1.2310    0.1130 hn        1 MOL      0.273727
    150 H68        10.2800   -0.6950   -0.7440 h1        1 MOL      0.018846
    151 H69        10.7750    1.3540    1.4910 hc        1 MOL      0.172207
    152 H70        11.4000    1.4100   -0.1360 hc        1 MOL      0.172207
    153 H71        12.5580   -0.7750    0.2500 hc        1 MOL     -0.082617
    154 H72        11.9470   -0.7540    1.8910 hc        1 MOL     -0.082617
    155 H73        13.1360    1.2890    2.2610 hc        1 MOL      0.104563
    156 H74        14.0560    1.1440    0.7430 hc        1 MOL      0.104563
    157 H75        13.8440   -0.9650    2.8700 hx        1 MOL      0.156869
    158 H76        15.1790    0.0910    2.8490 hx        1 MOL      0.156869
    159 H77        15.8420   -1.9490    1.5920 hn        1 MOL      0.366125
    160 H78        14.6620   -1.5350    0.4730 hn        1 MOL      0.366125
    161 H79        15.8840   -0.6010    0.6950 hn        1 MOL      0.366125
    162 N14         9.6820   -2.3310    0.9130 n         1 MOL     -0.073369
    163 C49         9.5150   -3.2930    1.9990 c3        1 MOL      0.082594
    164 C50         8.0870   -3.7260    2.0930 c         1 MOL      0.419270
    165 O22         7.4480   -3.5150    3.0880 o         1 MOL     -0.517549
    166 C51        10.5630   -4.4190    1.8620 c3        1 MOL      0.302347
    167 C52        11.9220   -3.7650    2.0710 c3        1 MOL     -0.033809
    168 C53        13.0660   -4.7240    2.2080 c         1 MOL      0.638851
    169 O23        14.1680   -4.3100    1.7640 o         1 MOL     -0.686706
    170 O24        12.8900   -5.8730    2.6800 o         1 MOL     -0.686706
    171 H80        10.3340   -2.5580    0.1670 hn        1 MOL      0.243565
    172 H81         9.6370   -2.7190    2.9160 h1        1 MOL      0.036853
    173 H82        10.5560   -4.8820    0.8730 hc        1 MOL     -0.069417
    174 H83        10.4140   -5.1510    2.6560 hc        1 MOL     -0.069417
    175 H84        11.9490   -3.1710    2.9860 hc        1 MOL     -0.064625
    176 H85        12.0690   -3.1910    1.1580 hc        1 MOL     -0.064625
    177 N15         7.3850   -4.3170    1.0810 n         1 MOL     -0.465756
    178 C54         7.8430   -4.6630   -0.3250 c3        1 MOL      0.065488
    179 H86         6.9720   -4.8600   -0.9510 h1        1 MOL      0.017714
    180 H87         8.4060   -3.8280   -0.7400 h1        1 MOL      0.017714
    181 H88         8.4750   -5.5490   -0.2930 h1        1 MOL      0.017714
    182 H89         6.4230   -4.3660    1.3800 hn        1 MOL      0.316967
    183 Ca1        -2.2130    2.8470    2.7370 Ca        1 MOL      1.673177
    184 O25        -0.2120    4.6090    2.7280 oh        1 MOL     -0.799308
    185 O26        -2.0950    3.9840    5.0710 oh        1 MOL     -0.799308
    186 H90         0.7280    4.5230    2.5810 ho        1 MOL      0.397973
    187 H91        -1.8930    3.5110    5.8750 ho        1 MOL      0.397973
    188 H92        -0.3360    5.5350    2.9180 ho        1 MOL      0.397973
    189 H93        -2.3920    4.8510    5.3690 ho        1 MOL      0.397973
    190 O27        -0.4110    1.5060    1.4810 oh        1 MOL     -0.799308
    191 H94         0.4390    1.8800    1.2460 ho        1 MOL      0.397973
    192 H95        -0.6480    0.9750    0.7260 ho        1 MOL      0.397973
    193 O28        -3.4590    1.5140    4.7570 oh        1 MOL     -0.799308
    194 H96        -3.8560    1.8760    5.5510 ho        1 MOL      0.397973
    195 H97        -3.9080    0.6810    4.6350 ho        1 MOL      0.397973
    196 O29        -0.4760    1.3990    4.2830 oh        1 MOL     -0.799308
    197 H98        -0.3900    1.7310    5.1770 ho        1 MOL      0.397973
    198 H99        -0.4280    0.4540    4.3750 ho        1 MOL      0.397973
@<TRIPOS>BOND
     1    1    2 1   
     2    1    4 1   
     3    1    5 1   
     4    1    6 1   
     5    2    3 2   
     6    2    7 1   
     7    7    8 1   
     8    7   15 1   
     9    8    9 1   
    10    8   11 1   
    11    8   16 1   
    12    9   10 2   
    13    9   19 1   
    14   11   12 1   
    15   11   17 1   
    16   11   18 1   
    17   12   13 1   
    18   12   14 1   
    19   19   20 1   
    20   19   28 1   
    21   20   21 1   
    22   20   23 1   
    23   20   29 1   
    24   21   22 2   
    25   21   41 1   
    26   23   24 1   
    27   23   30 1   
    28   23   31 1   
    29   24   25 1   
    30   24   32 1   
    31   24   33 1   
    32   25   26 1   
    33   25   34 1   
    34   25   35 1   
    35   26   27 1   
    36   26   36 1   
    37   26   37 1   
    38   27   38 1   
    39   27   39 1   
    40   27   40 1   
    41   41   42 1   
    42   41   49 1   
    43   42   43 1   
    44   42   45 1   
    45   42   50 1   
    46   43   44 2   
    47   43   53 1   
    48   45   46 1   
    49   45   51 1   
    50   45   52 1   
    51   46   47 1   
    52   46   48 1   
    53   53   54 1   
    54   53   57 1   
    55   54   55 1   
    56   54   58 1   
    57   54   59 1   
    58   55   56 2   
    59   55   60 1   
    60   60   61 1   
    61   60   68 1   
    62   61   62 1   
    63   61   64 1   
    64   61   69 1   
    65   62   63 2   
    66   62   72 1   
    67   64   65 1   
    68   64   70 1   
    69   64   71 1   
    70   65   66 1   
    71   65   67 1   
    72   72   73 1   
    73   72   76 1   
    74   73   74 1   
    75   73   77 1   
    76   73   78 1   
    77   74   75 2   
    78   74   79 1   
    79   79   80 1   
    80   79   86 1   
    81   80   81 1   
    82   80   83 1   
    83   80   87 1   
    84   81   82 2   
    85   81   93 1   
    86   83   84 1   
    87   83   85 1   
    88   83   88 1   
    89   84   90 1   
    90   84   91 1   
    91   84   92 1   
    92   85   89 1   
    93   93   94 1   
    94   93  101 1   
    95   94   95 1   
    96   94   97 1   
    97   94  102 1   
    98   95   96 2   
    99   95  112 1   
   100   97   98 1   
   101   97   99 1   
   102   97  103 1   
   103   98  100 1   
   104   98  104 1   
   105   98  105 1   
   106   99  106 1   
   107   99  107 1   
   108   99  108 1   
   109  100  109 1   
   110  100  110 1   
   111  100  111 1   
   112  112  113 1   
   113  112  119 1   
   114  113  114 1   
   115  113  116 1   
   116  113  120 1   
   117  114  115 2   
   118  114  126 1   
   119  116  117 1   
   120  116  118 1   
   121  116  121 1   
   122  117  123 1   
   123  117  124 1   
   124  117  125 1   
   125  118  122 1   
   126  126  127 1   
   127  126  133 1   
   128  127  128 1   
   129  127  130 1   
   130  127  134 1   
   131  128  129 2   
   132  128  140 1   
   133  130  131 1   
   134  130  132 1   
   135  130  135 1   
   136  131  137 1   
   137  131  138 1   
   138  131  139 1   
   139  132  136 1   
   140  140  141 1   
   141  140  149 1   
   142  141  142 1   
   143  141  144 1   
   144  141  150 1   
   145  142  143 2   
   146  142  162 1   
   147  144  145 1   
   148  144  151 1   
   149  144  152 1   
   150  145  146 1   
   151  145  153 1   
   152  145  154 1   
   153  146  147 1   
   154  146  155 1   
   155  146  156 1   
   156  147  148 1   
   157  147  157 1   
   158  147  158 1   
   159  148  159 1   
   160  148  160 1   
   161  148  161 1   
   162  162  163 1   
   163  162  171 1   
   164  163  164 1   
   165  163  166 1   
   166  163  172 1   
   167  164  165 2   
   168  164  177 1   
   169  166  167 1   
   170  166  173 1   
   171  166  174 1   
   172  167  168 1   
   173  167  175 1   
   174  167  176 1   
   175  168  169 1   
   176  168  170 1   
   177  177  178 1   
   178  177  182 1   
   179  178  179 1   
   180  178  180 1   
   181  178  181 1   
   182  184  186 1   
   183  184  188 1   
   184  185  187 1   
   185  185  189 1   
   186  190  191 1   
   187  190  192 1   
   188  193  194 1   
   189  193  195 1   
   190  196  197 1   
   191  196  198 1   
@<TRIPOS>SUBSTRUCTURE
     1 MOL         1 TEMP              0 ****  ****    0 ROOT
