@<TRIPOS>MOLECULE
MOL
  186   183     1     0     0
SMALL
resp


@<TRIPOS>ATOM
      1 C1          9.2240   -0.4620    2.2910 c3        1 MOL     -0.656944
      2 C2          8.1670   -0.5240    1.1890 c         1 MOL      0.832191
      3 O1          6.9580   -0.7270    1.5800 o         1 MOL     -0.661156
      4 H1          9.2180   -1.3960    2.8520 hc        1 MOL      0.172953
      5 H2         10.2070   -0.3130    1.8440 hc        1 MOL      0.172953
      6 H3          9.0010    0.3660    2.9630 hc        1 MOL      0.172953
      7 N1          8.4390   -0.2530   -0.0840 n         1 MOL     -0.671596
      8 C3          7.4810   -0.0060   -1.1430 c3        1 MOL      0.092933
      9 C4          6.7320   -1.3140   -1.6540 c         1 MOL      0.566365
     10 O2          6.3330   -1.5190   -2.8150 o         1 MOL     -0.540786
     11 C5          8.1820    0.6600   -2.3870 c3        1 MOL     -0.218487
     12 C6          8.8350    1.9460   -1.9640 c         1 MOL      0.854504
     13 O3          8.1590    2.9320   -1.8470 o         1 MOL     -0.697912
     14 O4         10.0630    1.9510   -1.9670 o         1 MOL     -0.697912
     15 H4          9.4050   -0.2570   -0.3730 hn        1 MOL      0.329788
     16 H5          6.7310    0.6900   -0.7810 h1        1 MOL      0.067450
     17 H6          7.4900    0.8610   -3.2040 hc        1 MOL      0.053573
     18 H7          8.8760   -0.0950   -2.7350 hc        1 MOL      0.053573
     19 N2          6.4350   -2.2160   -0.7820 n         1 MOL     -0.329505
     20 C7          5.9740   -3.6190   -1.0560 c3        1 MOL      0.011569
     21 C8          4.5750   -3.6590   -1.6630 c         1 MOL      0.606320
     22 O5          4.3410   -4.4130   -2.6100 o         1 MOL     -0.578585
     23 C9          6.0690   -4.4330    0.2450 c3        1 MOL     -0.096776
     24 C10         7.5110   -4.8030    0.6650 c3        1 MOL      0.190186
     25 C11         7.6700   -5.8030    1.8220 c3        1 MOL      0.061835
     26 C12         9.0760   -5.5810    2.3520 c3        1 MOL      0.017766
     27 N3          9.4510   -6.7410    3.1140 n4        1 MOL     -0.263523
     28 H8          6.6200   -1.8960    0.1570 hn        1 MOL      0.228960
     29 H9          6.6290   -4.1120   -1.7720 h1        1 MOL      0.065039
     30 H10         5.5740   -5.3840    0.0760 hc        1 MOL      0.014940
     31 H11         5.5700   -3.8460    1.0200 hc        1 MOL      0.014940
     32 H12         7.8840   -3.8230    0.9390 hc        1 MOL     -0.059837
     33 H13         8.1180   -5.0790   -0.1950 hc        1 MOL     -0.059837
     34 H14         7.6950   -6.8450    1.4860 hc        1 MOL      0.003101
     35 H15         6.8990   -5.6440    2.5750 hc        1 MOL      0.003101
     36 H16         9.0340   -4.7380    3.0370 hx        1 MOL      0.063373
     37 H17         9.8490   -5.5890    1.5900 hx        1 MOL      0.063373
     38 H18         8.7100   -6.9440    3.7810 hn        1 MOL      0.252336
     39 H19         9.6040   -7.5090    2.4850 hn        1 MOL      0.252336
     40 H20        10.3160   -6.5360    3.5850 hn        1 MOL      0.252336
     41 N4          3.5300   -2.9950   -1.1520 n         1 MOL     -0.392538
     42 C13         3.4230   -2.1420    0.1040 c3        1 MOL     -0.079940
     43 C14         3.2920   -0.6330   -0.1810 c         1 MOL      0.480417
     44 O6          2.8160   -0.2370   -1.2230 o         1 MOL     -0.470881
     45 C15         2.1910   -2.5070    0.9400 c3        1 MOL     -0.406408
     46 C16         0.8460   -2.5610    0.1400 c         1 MOL      0.971859
     47 O7          0.7110   -1.7770   -0.8400 o         1 MOL     -0.772865
     48 O8          0.0360   -3.4230    0.3830 o         1 MOL     -0.772865
     49 H21         2.7510   -3.0000   -1.7920 hn        1 MOL      0.326432
     50 H22         4.3340   -2.1690    0.7050 h1        1 MOL      0.135875
     51 H23         2.0990   -1.8080    1.7700 hc        1 MOL      0.100922
     52 H24         2.4450   -3.4790    1.3670 hc        1 MOL      0.100922
     53 N5          3.7710    0.2370    0.7250 n         1 MOL     -0.433018
     54 C17         4.0470    1.6700    0.5160 c3        1 MOL     -0.066216
     55 C18         2.8840    2.4690    0.0680 c         1 MOL      0.606122
     56 O9          1.6910    2.1020    0.0930 o         1 MOL     -0.666503
     57 H25         4.1790   -0.1760    1.5610 hn        1 MOL      0.293418
     58 H26         4.7110    1.7220   -0.3370 h1        1 MOL      0.123223
     59 H27         4.4990    2.1370    1.3910 h1        1 MOL      0.123223
     60 N6          3.1290    3.6930   -0.3860 n         1 MOL     -0.486268
     61 C19         2.2230    4.6830   -0.8400 c3        1 MOL      0.371081
     62 C20         2.6870    6.1060   -0.4820 c         1 MOL      0.323552
     63 O10         3.8510    6.3690   -0.5340 o         1 MOL     -0.488947
     64 C21         1.8600    4.7170   -2.3530 c3        1 MOL     -0.123196
     65 C22         1.5530    3.3890   -2.8100 c         1 MOL      0.668226
     66 O11         2.3300    2.8060   -3.5750 o         1 MOL     -0.595576
     67 O12         0.5410    2.7690   -2.5370 o         1 MOL     -0.595576
     68 H28         4.0980    3.9800   -0.3990 hn        1 MOL      0.265643
     69 H29         1.3120    4.5020   -0.2590 h1        1 MOL      0.029164
     70 H30         2.6210    5.1810   -2.9880 hc        1 MOL      0.025884
     71 H31         0.9270    5.2700   -2.4540 hc        1 MOL      0.025884
     72 N7          1.8730    7.1190   -0.1470 n         1 MOL     -0.304924
     73 C23         0.3640    7.0840   -0.0940 c3        1 MOL     -0.247907
     74 C24        -0.3240    6.2030    0.9520 c         1 MOL      0.689529
     75 O13         0.2680    5.8940    2.0340 o         1 MOL     -0.529582
     76 H32         2.3150    7.9980    0.0660 hn        1 MOL      0.302377
     77 H33        -0.0800    6.8840   -1.0690 h1        1 MOL      0.094184
     78 H34         0.1280    8.0750    0.2800 h1        1 MOL      0.094184
     79 N8         -1.4420    5.6940    0.5140 n         1 MOL     -0.674919
     80 C25        -2.2990    4.7130    1.2160 c3        1 MOL      0.032866
     81 C26        -1.6410    3.4000    1.4110 c         1 MOL      0.869122
     82 O14        -1.0950    2.9620    0.3750 o         1 MOL     -0.644343
     83 C27        -3.6560    4.4400    0.5530 c3        1 MOL      0.355808
     84 C28        -4.2330    5.8360    0.2650 c3        1 MOL     -0.369553
     85 O15        -4.6000    3.7200    1.4530 oh        1 MOL     -0.696290
     86 H35        -1.6740    5.8680   -0.4620 hn        1 MOL      0.362051
     87 H36        -2.5450    5.0390    2.2260 h1        1 MOL      0.057495
     88 H37        -3.5140    3.9100   -0.3900 h1        1 MOL      0.043032
     89 H38        -5.4600    3.7650    1.0280 ho        1 MOL      0.417740
     90 H39        -3.7920    6.2680   -0.6400 hc        1 MOL      0.096419
     91 H40        -5.3020    5.7380    0.0960 hc        1 MOL      0.096419
     92 H41        -4.1400    6.4620    1.1460 hc        1 MOL      0.096419
     93 N9         -1.7540    2.8130    2.6210 n         1 MOL     -0.633554
     94 C29        -1.1960    1.5620    3.1130 c3        1 MOL      0.054741
     95 C30        -1.4700    0.3400    2.2750 c         1 MOL      0.349441
     96 O16        -0.8520    0.2150    1.2640 o         1 MOL     -0.451686
     97 C31         0.3690    1.6930    3.3280 c3        1 MOL      0.293980
     98 C32         0.7990    2.9950    4.0530 c3        1 MOL      0.183543
     99 C33         0.9120    0.5360    4.3020 c3        1 MOL     -0.447455
    100 C34         2.2720    3.3260    3.8860 c3        1 MOL     -0.177414
    101 H42        -2.2040    3.3490    3.3420 hn        1 MOL      0.324388
    102 H43        -1.6240    1.3880    4.0990 h1        1 MOL      0.035154
    103 H44         0.7970    1.7060    2.3310 hc        1 MOL     -0.049915
    104 H45         0.4340    2.9050    5.0730 hc        1 MOL     -0.074632
    105 H46         0.2500    3.8270    3.6070 hc        1 MOL     -0.074632
    106 H47         0.5040   -0.4140    3.9500 hc        1 MOL      0.106862
    107 H48         2.0010    0.4540    4.2780 hc        1 MOL      0.106862
    108 H49         0.5200    0.6540    5.3110 hc        1 MOL      0.106862
    109 H50         2.6710    4.2830    4.2290 hc        1 MOL      0.034930
    110 H51         2.8080    2.5230    4.3910 hc        1 MOL      0.034930
    111 H52         2.5300    3.2760    2.8250 hc        1 MOL      0.034930
    112 N10        -2.3450   -0.5920    2.7340 n         1 MOL     -0.230665
    113 C35        -2.5240   -1.9560    2.1940 c3        1 MOL     -0.885566
    114 C36        -4.0360   -2.1880    2.0460 c         1 MOL      0.736013
    115 O17        -4.4400   -3.0920    1.3600 o         1 MOL     -0.559512
    116 C37        -1.9070   -3.0070    3.1580 c3        1 MOL      0.477263
    117 C38        -2.2220   -2.8340    4.5920 c3        1 MOL     -0.283553
    118 O18        -0.5020   -2.9170    2.9730 oh        1 MOL     -0.587510
    119 H53        -2.7150   -0.4280    3.6540 hn        1 MOL      0.268971
    120 H54        -2.1610   -1.9240    1.1660 h1        1 MOL      0.508659
    121 H55        -2.3480   -3.9450    2.8440 h1        1 MOL      0.012925
    122 H56        -0.4270   -3.0760    2.0320 ho        1 MOL      0.343386
    123 H57        -1.4810   -2.2410    5.1290 hc        1 MOL      0.073379
    124 H58        -3.2050   -2.4100    4.8210 hc        1 MOL      0.073379
    125 H59        -2.0850   -3.8400    4.9960 hc        1 MOL      0.073379
    126 N11        -4.9660   -1.3160    2.5610 n         1 MOL     -0.252686
    127 C39        -6.3950   -1.1400    2.1210 c3        1 MOL     -0.656887
    128 C40        -6.5380   -0.9180    0.6420 c         1 MOL      0.785297
    129 O19        -6.2760    0.1610    0.0760 o         1 MOL     -0.536201
    130 C41        -7.1400   -0.0650    2.9510 c3        1 MOL      0.277366
    131 C42        -8.5990   -0.0790    2.5990 c3        1 MOL     -0.412603
    132 O20        -7.0700   -0.2830    4.3710 oh        1 MOL     -0.572003
    133 H60        -4.6100   -0.5360    3.1050 hn        1 MOL      0.272247
    134 H61        -6.8330   -2.1160    2.3330 h1        1 MOL      0.204665
    135 H62        -6.7650    0.9530    2.8200 h1        1 MOL      0.158001
    136 H63        -7.5580   -1.1100    4.4900 ho        1 MOL      0.391871
    137 H64        -8.6970    0.3250    1.6000 hc        1 MOL      0.116213
    138 H65        -9.1200   -1.0400    2.6790 hc        1 MOL      0.116213
    139 H66        -9.1690    0.5800    3.2500 hc        1 MOL      0.116213
    140 N12        -6.9880   -2.0110   -0.0650 n         1 MOL     -0.334773
    141 C43        -7.2150   -2.0040   -1.5590 c3        1 MOL      0.242915
    142 C44        -6.0140   -1.6650   -2.4380 c         1 MOL      0.435689
    143 O21        -6.0430   -0.7180   -3.2670 o         1 MOL     -0.507754
    144 C45        -8.4780   -1.2590   -1.9630 c3        1 MOL     -0.427291
    145 C46        -9.7270   -1.9170   -1.2910 c3        1 MOL      0.184062
    146 C47       -11.0780   -1.4180   -1.6560 c3        1 MOL      0.098314
    147 C48       -12.1970   -2.0660   -0.8700 c3        1 MOL      0.042148
    148 N13       -12.2880   -3.5310   -1.0020 n4        1 MOL     -0.058809
    149 H67        -7.1820   -2.8310    0.4810 hn        1 MOL      0.193542
    150 H68        -7.4270   -3.0570   -1.7630 h1        1 MOL      0.010560
    151 H69        -8.5430   -1.2900   -3.0400 hc        1 MOL      0.131063
    152 H70        -8.4890   -0.2040   -1.7050 hc        1 MOL      0.131063
    153 H71        -9.6340   -1.7460   -0.2100 hc        1 MOL     -0.072660
    154 H72        -9.7380   -2.9910   -1.4910 hc        1 MOL     -0.072660
    155 H73       -11.2890   -1.5030   -2.7310 hc        1 MOL      0.007825
    156 H74       -11.1490   -0.3750   -1.3620 hc        1 MOL      0.007825
    157 H75       -13.1270   -1.6470   -1.2650 hx        1 MOL      0.030178
    158 H76       -12.0540   -1.9150    0.1960 hx        1 MOL      0.030178
    159 H77       -12.1410   -3.7600   -1.9770 hn        1 MOL      0.158719
    160 H78       -11.4980   -3.9100   -0.4990 hn        1 MOL      0.158719
    161 H79       -13.1440   -3.9210   -0.6140 hn        1 MOL      0.158719
    162 N14        -4.9350   -2.2770   -2.1420 n         1 MOL     -0.485955
    163 C49        -3.6740   -1.7210   -2.6010 c3        1 MOL      0.106577
    164 C50        -2.5640   -1.9360   -1.5490 c         1 MOL      0.201797
    165 O22        -2.0680   -1.0360   -0.9450 o         1 MOL     -0.448119
    166 C51        -3.2970   -2.1900   -4.0320 c3        1 MOL     -0.152786
    167 C52        -1.8570   -1.9730   -4.4340 c3        1 MOL     -0.234778
    168 C53        -1.2260   -0.5810   -4.3690 c         1 MOL      0.750635
    169 O23        -0.2800   -0.2390   -3.6030 o         1 MOL     -0.687854
    170 O24        -1.8400    0.3990   -4.8600 o         1 MOL     -0.687854
    171 H80        -5.0550   -2.9680   -1.4150 hn        1 MOL      0.296505
    172 H81        -3.6240   -0.6340   -2.5910 h1        1 MOL      0.178698
    173 H82        -3.9170   -1.7110   -4.7990 hc        1 MOL      0.079933
    174 H83        -3.4500   -3.2670   -4.1050 hc        1 MOL      0.079933
    175 H84        -1.7520   -2.3780   -5.4450 hc        1 MOL      0.068296
    176 H85        -1.2910   -2.6320   -3.7760 hc        1 MOL      0.068296
    177 N15        -2.1690   -3.2120   -1.2590 n         1 MOL     -0.133974
    178 C54        -2.5360   -4.5000   -1.7420 c3        1 MOL     -0.322704
    179 H86        -3.3600   -4.8900   -1.1450 h1        1 MOL      0.104989
    180 H87        -2.8480   -4.4220   -2.7830 h1        1 MOL      0.104989
    181 H88        -1.6830   -5.1740   -1.6680 h1        1 MOL      0.104989
    182 H89        -1.4860   -3.2570   -0.5170 hn        1 MOL      0.339202
    183 Ca1        -0.0800    0.6870   -1.1750 Ca        1 MOL      1.753469
    184 O25        -2.2470    1.7190   -2.4430 oh        1 MOL     -1.019822
    185 H90        -2.0540    1.4150   -3.3330 ho        1 MOL      0.451651
    186 H91        -2.8380    2.4560   -2.5690 ho        1 MOL      0.451651
@<TRIPOS>BOND
     1    1    2 1   
     2    1    4 1   
     3    1    5 1   
     4    1    6 1   
     5    2    3 2   
     6    2    7 1   
     7    7    8 1   
     8    7   15 1   
     9    8    9 1   
    10    8   11 1   
    11    8   16 1   
    12    9   10 2   
    13    9   19 1   
    14   11   12 1   
    15   11   17 1   
    16   11   18 1   
    17   12   13 1   
    18   12   14 1   
    19   19   20 1   
    20   19   28 1   
    21   20   21 1   
    22   20   23 1   
    23   20   29 1   
    24   21   22 2   
    25   21   41 1   
    26   23   24 1   
    27   23   30 1   
    28   23   31 1   
    29   24   25 1   
    30   24   32 1   
    31   24   33 1   
    32   25   26 1   
    33   25   34 1   
    34   25   35 1   
    35   26   27 1   
    36   26   36 1   
    37   26   37 1   
    38   27   38 1   
    39   27   39 1   
    40   27   40 1   
    41   41   42 1   
    42   41   49 1   
    43   42   43 1   
    44   42   45 1   
    45   42   50 1   
    46   43   44 2   
    47   43   53 1   
    48   45   46 1   
    49   45   51 1   
    50   45   52 1   
    51   46   47 1   
    52   46   48 1   
    53   53   54 1   
    54   53   57 1   
    55   54   55 1   
    56   54   58 1   
    57   54   59 1   
    58   55   56 2   
    59   55   60 1   
    60   60   61 1   
    61   60   68 1   
    62   61   62 1   
    63   61   64 1   
    64   61   69 1   
    65   62   63 2   
    66   62   72 1   
    67   64   65 1   
    68   64   70 1   
    69   64   71 1   
    70   65   66 1   
    71   65   67 1   
    72   72   73 1   
    73   72   76 1   
    74   73   74 1   
    75   73   77 1   
    76   73   78 1   
    77   74   75 2   
    78   74   79 1   
    79   79   80 1   
    80   79   86 1   
    81   80   81 1   
    82   80   83 1   
    83   80   87 1   
    84   81   82 2   
    85   81   93 1   
    86   83   84 1   
    87   83   85 1   
    88   83   88 1   
    89   84   90 1   
    90   84   91 1   
    91   84   92 1   
    92   85   89 1   
    93   93   94 1   
    94   93  101 1   
    95   94   95 1   
    96   94   97 1   
    97   94  102 1   
    98   95   96 2   
    99   95  112 1   
   100   97   98 1   
   101   97   99 1   
   102   97  103 1   
   103   98  100 1   
   104   98  104 1   
   105   98  105 1   
   106   99  106 1   
   107   99  107 1   
   108   99  108 1   
   109  100  109 1   
   110  100  110 1   
   111  100  111 1   
   112  112  113 1   
   113  112  119 1   
   114  113  114 1   
   115  113  116 1   
   116  113  120 1   
   117  114  115 2   
   118  114  126 1   
   119  116  117 1   
   120  116  118 1   
   121  116  121 1   
   122  117  123 1   
   123  117  124 1   
   124  117  125 1   
   125  118  122 1   
   126  126  127 1   
   127  126  133 1   
   128  127  128 1   
   129  127  130 1   
   130  127  134 1   
   131  128  129 2   
   132  128  140 1   
   133  130  131 1   
   134  130  132 1   
   135  130  135 1   
   136  131  137 1   
   137  131  138 1   
   138  131  139 1   
   139  132  136 1   
   140  140  141 1   
   141  140  149 1   
   142  141  142 1   
   143  141  144 1   
   144  141  150 1   
   145  142  143 2   
   146  142  162 1   
   147  144  145 1   
   148  144  151 1   
   149  144  152 1   
   150  145  146 1   
   151  145  153 1   
   152  145  154 1   
   153  146  147 1   
   154  146  155 1   
   155  146  156 1   
   156  147  148 1   
   157  147  157 1   
   158  147  158 1   
   159  148  159 1   
   160  148  160 1   
   161  148  161 1   
   162  162  163 1   
   163  162  171 1   
   164  163  164 1   
   165  163  166 1   
   166  163  172 1   
   167  164  165 2   
   168  164  177 1   
   169  166  167 1   
   170  166  173 1   
   171  166  174 1   
   172  167  168 1   
   173  167  175 1   
   174  167  176 1   
   175  168  169 1   
   176  168  170 1   
   177  177  178 1   
   178  177  182 1   
   179  178  179 1   
   180  178  180 1   
   181  178  181 1   
   182  184  185 1   
   183  184  186 1   
@<TRIPOS>SUBSTRUCTURE
     1 MOL         1 TEMP              0 ****  ****    0 ROOT
