@<TRIPOS>MOLECULE
MOL
  195   189     1     0     0
SMALL
resp


@<TRIPOS>ATOM
      1 C1         -2.4390    8.2620    0.6950 c3        1 MOL     -0.293801
      2 C2         -2.4780    6.7940    0.8850 c         1 MOL      0.697940
      3 O1         -2.0760    6.3500    1.9770 o         1 MOL     -0.605103
      4 H1         -1.9040    8.4950   -0.2250 hc        1 MOL      0.071851
      5 H2         -3.4560    8.6480    0.6310 hc        1 MOL      0.071851
      6 H3         -1.9260    8.7240    1.5390 hc        1 MOL      0.071851
      7 N1         -2.9510    6.0130   -0.0840 n         1 MOL     -0.593140
      8 C3         -3.0800    4.5130   -0.0940 c3        1 MOL      0.091263
      9 C4         -1.6360    3.8750   -0.0130 c         1 MOL      0.508690
     10 O2         -1.5190    2.8420    0.6580 o         1 MOL     -0.530141
     11 C5         -3.8950    4.0950   -1.2600 c3        1 MOL     -0.400371
     12 C6         -3.4970    4.5920   -2.6210 c         1 MOL      0.839297
     13 O3         -3.3540    5.8320   -2.7980 o         1 MOL     -0.733098
     14 O4         -3.6090    3.8110   -3.5860 o         1 MOL     -0.733098
     15 H4         -3.2040    6.5030   -0.9310 hn        1 MOL      0.336235
     16 H5         -3.6590    4.2160    0.7790 h1        1 MOL      0.110859
     17 H6         -4.9140    4.4760   -1.1680 hc        1 MOL      0.124192
     18 H7         -3.8330    3.0030   -1.2420 hc        1 MOL      0.124192
     19 N2         -0.6550    4.3860   -0.7720 n         1 MOL     -0.369364
     20 C7          0.6200    3.7540   -1.0560 c3        1 MOL      0.078432
     21 C8          1.4410    3.5870    0.1950 c         1 MOL      0.496377
     22 O5          1.7160    4.6390    0.7500 o         1 MOL     -0.558702
     23 C9          1.3630    4.5360   -2.1150 c3        1 MOL     -0.002573
     24 C10         0.5850    4.6200   -3.4620 c3        1 MOL     -0.191125
     25 C11         0.2060    3.2870   -4.0880 c3        1 MOL      0.118628
     26 C12        -0.3430    3.3830   -5.4790 c3        1 MOL     -0.106419
     27 N3         -1.6660    4.0060   -5.4930 n4        1 MOL     -0.219361
     28 H8         -0.8290    5.1970   -1.3460 hn        1 MOL      0.233152
     29 H9          0.4090    2.7440   -1.4230 h1        1 MOL      0.102917
     30 H10         2.2480    3.9670   -2.3910 hc        1 MOL      0.064936
     31 H11         1.6680    5.5380   -1.7970 hc        1 MOL      0.064936
     32 H12         1.3110    5.1350   -4.0730 hc        1 MOL      0.042357
     33 H13        -0.2940    5.2580   -3.3920 hc        1 MOL      0.042357
     34 H14        -0.4570    2.7900   -3.3870 hc        1 MOL      0.005642
     35 H15         1.0750    2.6260   -4.1110 hc        1 MOL      0.005642
     36 H16        -0.3710    2.3300   -5.7590 hx        1 MOL      0.102073
     37 H17         0.3300    3.8510   -6.2010 hx        1 MOL      0.102073
     38 H18        -1.5310    4.9800   -5.2850 hn        1 MOL      0.271920
     39 H19        -2.2440    3.8770   -6.3120 hn        1 MOL      0.271920
     40 H20        -2.2310    3.7320   -4.7020 hn        1 MOL      0.271920
     41 N4          1.9750    2.4140    0.5840 n         1 MOL     -0.649941
     42 C13         1.9980    1.0790   -0.0140 c3        1 MOL      0.427933
     43 C14         2.3650    0.9800   -1.4530 c         1 MOL      0.161339
     44 O6          1.4700    0.5880   -2.2800 o         1 MOL     -0.532646
     45 C15         0.7890    0.2300    0.4410 c3        1 MOL      0.257114
     46 C16         0.4870    0.2050    1.9340 c         1 MOL      0.742476
     47 O7         -0.3480   -0.6370    2.4190 o         1 MOL     -0.803254
     48 O8          1.2820    0.8550    2.6700 o         1 MOL     -0.803254
     49 H21         2.4870    2.4870    1.4410 hn        1 MOL      0.364849
     50 H22         2.8310    0.5510    0.4370 h1        1 MOL     -0.095907
     51 H23         0.9300   -0.7930    0.0740 hc        1 MOL     -0.080783
     52 H24        -0.1050    0.6250   -0.0250 hc        1 MOL     -0.080783
     53 N5          3.6080    1.2560   -1.7940 n         1 MOL     -0.083668
     54 C17         4.8370    1.6440   -1.0870 c3        1 MOL     -0.054150
     55 C18         5.8170    2.4190   -1.9700 c         1 MOL      0.491464
     56 O9          5.4870    2.9010   -3.0640 o         1 MOL     -0.560396
     57 H25         3.6840    1.1490   -2.7970 hn        1 MOL      0.216210
     58 H26         5.3850    0.7650   -0.7440 h1        1 MOL      0.048488
     59 H27         4.5310    2.3410   -0.3060 h1        1 MOL      0.048488
     60 N6          7.0290    2.6830   -1.5020 n         1 MOL     -0.347470
     61 C19         7.4760    2.3420   -0.1800 c3        1 MOL      0.088137
     62 C20         8.0660    0.9190   -0.1430 c         1 MOL      0.569605
     63 O10         8.4130    0.3140   -1.1780 o         1 MOL     -0.467093
     64 C21         8.5890    3.3050    0.2020 c3        1 MOL     -0.173769
     65 C22         9.8180    3.3670   -0.7760 c         1 MOL      0.697414
     66 O11         9.6940    4.1060   -1.7660 o         1 MOL     -0.677224
     67 O12        10.7530    2.5980   -0.6570 o         1 MOL     -0.677224
     68 H28         7.6340    3.3740   -1.9290 hn        1 MOL      0.263456
     69 H29         6.6550    2.3420    0.5390 h1        1 MOL     -0.027303
     70 H30         8.8810    2.9650    1.1990 hc        1 MOL     -0.009960
     71 H31         8.3010    4.3560    0.2920 hc        1 MOL     -0.009960
     72 N7          8.1430    0.3530    1.0500 n         1 MOL     -0.426781
     73 C23         8.5670   -1.0850    1.2270 c3        1 MOL     -0.174900
     74 C24         7.4680   -2.0760    1.0880 c         1 MOL      0.520405
     75 O13         7.7610   -3.2410    0.8030 o         1 MOL     -0.543480
     76 H32         8.0770    0.8570    1.9240 hn        1 MOL      0.299389
     77 H33         8.8490   -1.1260    2.2830 h1        1 MOL      0.129712
     78 H34         9.4350   -1.4040    0.6540 h1        1 MOL      0.129712
     79 N8          6.1870   -1.6870    1.2610 n         1 MOL     -0.323804
     80 C25         4.9470   -2.4970    1.1190 c3        1 MOL     -0.184950
     81 C26         4.5590   -2.5990   -0.3450 c         1 MOL      0.679280
     82 O14         4.5910   -1.5640   -1.0730 o         1 MOL     -0.512696
     83 C27         3.7480   -1.9610    1.9780 c3        1 MOL      0.788433
     84 C28         4.0640   -2.0580    3.4480 c3        1 MOL     -0.667590
     85 O15         2.4850   -2.5610    1.6670 oh        1 MOL     -0.715872
     86 H35         6.1440   -0.7340    1.6050 hn        1 MOL      0.146402
     87 H36         5.2310   -3.4890    1.4690 h1        1 MOL      0.091148
     88 H37         3.6640   -0.9220    1.6590 h1        1 MOL     -0.017949
     89 H38         1.7510   -2.2240    2.1870 ho        1 MOL      0.293976
     90 H39         4.3000   -3.1110    3.5490 hc        1 MOL      0.150155
     91 H40         4.8980   -1.3730    3.6190 hc        1 MOL      0.150155
     92 H41         3.2190   -1.8240    4.0880 hc        1 MOL      0.150155
     93 N9          3.9830   -3.7730   -0.7420 n         1 MOL     -0.517091
     94 C29         3.2830   -4.0100   -1.9920 c3        1 MOL     -0.070445
     95 C30         1.7730   -4.1640   -1.9090 c         1 MOL      0.516548
     96 O16         1.0720   -4.6050   -2.8870 o         1 MOL     -0.567459
     97 C31         3.9270   -5.2090   -2.7830 c3        1 MOL      0.202206
     98 C32         4.0290   -6.5990   -2.0260 c3        1 MOL      0.148106
     99 C33         5.3330   -4.8280   -3.1570 c3        1 MOL     -0.328653
    100 C34         3.8950   -7.6390   -3.0780 c3        1 MOL     -0.235146
    101 H42         4.1110   -4.5230   -0.0660 hn        1 MOL      0.247530
    102 H43         3.3890   -3.1700   -2.6770 h1        1 MOL      0.135905
    103 H44         3.3240   -5.3400   -3.6810 hc        1 MOL     -0.005082
    104 H45         3.1530   -6.6660   -1.3760 hc        1 MOL     -0.031828
    105 H46         4.9510   -6.6470   -1.4520 hc        1 MOL     -0.031828
    106 H47         6.0340   -4.6940   -2.3350 hc        1 MOL      0.088944
    107 H48         5.8330   -5.5000   -3.8510 hc        1 MOL      0.088944
    108 H49         5.3120   -3.8470   -3.6460 hc        1 MOL      0.088944
    109 H50         3.6880   -8.5320   -2.4880 hc        1 MOL      0.050535
    110 H51         3.0130   -7.5560   -3.7060 hc        1 MOL      0.050535
    111 H52         4.7430   -7.6910   -3.7640 hc        1 MOL      0.050535
    112 N10         1.2110   -4.0200   -0.6550 n         1 MOL     -0.337571
    113 C35        -0.2170   -4.3020   -0.2590 c3        1 MOL     -0.069262
    114 C36        -1.1610   -3.3910   -1.0600 c         1 MOL      0.661274
    115 O17        -0.8570   -2.2470   -1.4270 o         1 MOL     -0.524518
    116 C37        -0.4760   -4.0840    1.2440 c3        1 MOL      0.725992
    117 C38         0.1700   -5.2170    2.0510 c3        1 MOL     -0.414210
    118 O18        -1.8240   -4.1380    1.7030 oh        1 MOL     -0.846648
    119 H53         1.8260   -3.6560    0.0630 hn        1 MOL      0.256843
    120 H54        -0.5460   -5.3170   -0.4450 h1        1 MOL      0.045335
    121 H55        -0.0400   -3.1030    1.4040 h1        1 MOL     -0.145861
    122 H56        -1.8210   -3.7260    2.5750 ho        1 MOL      0.603229
    123 H57         1.0490   -5.4690    1.4550 hc        1 MOL      0.080377
    124 H58         0.3480   -4.9660    3.0900 hc        1 MOL      0.080377
    125 H59        -0.5080   -6.0540    2.2170 hc        1 MOL      0.080377
    126 N11        -2.4050   -3.7950   -1.2090 n         1 MOL     -0.693842
    127 C39        -3.5150   -3.1120   -1.7940 c3        1 MOL      0.076794
    128 C40        -4.7870   -3.2270   -0.8960 c         1 MOL      0.692192
    129 O19        -4.8850   -4.1460   -0.1260 o         1 MOL     -0.534836
    130 C41        -3.6770   -3.5780   -3.2650 c3        1 MOL      0.241738
    131 C42        -4.5200   -2.6420   -4.1260 c3        1 MOL     -0.273649
    132 O20        -4.3520   -4.8280   -3.2530 oh        1 MOL     -0.618398
    133 H60        -2.6960   -4.6870   -0.8300 hn        1 MOL      0.348460
    134 H61        -3.2020   -2.0700   -1.8730 h1        1 MOL      0.061893
    135 H62        -2.7180   -3.6240   -3.7910 h1        1 MOL      0.094971
    136 H63        -3.8540   -5.3680   -3.8740 ho        1 MOL      0.402700
    137 H64        -4.5670   -3.0760   -5.1200 hc        1 MOL      0.047506
    138 H65        -5.5390   -2.5280   -3.7350 hc        1 MOL      0.047506
    139 H66        -4.1480   -1.6140   -4.0590 hc        1 MOL      0.047506
    140 N12        -5.6500   -2.2760   -0.9720 n         1 MOL     -0.333077
    141 C43        -6.9060   -2.2930   -0.1880 c3        1 MOL     -0.085122
    142 C44        -7.0050   -1.4940    1.1190 c         1 MOL      0.551359
    143 O21        -8.0830   -1.1110    1.5910 o         1 MOL     -0.553628
    144 C45        -8.1740   -1.9920   -1.0110 c3        1 MOL     -0.109169
    145 C46        -8.1270   -0.5760   -1.7500 c3        1 MOL      0.270852
    146 C47        -9.2510   -0.4940   -2.7240 c3        1 MOL     -0.501785
    147 C48        -9.1110   -1.6230   -3.8430 c3        1 MOL      0.291921
    148 N13       -10.0310   -1.4050   -5.0060 n4        1 MOL     -0.448569
    149 H67        -5.2660   -1.3750   -1.2170 hn        1 MOL      0.239039
    150 H68        -6.9810   -3.3040    0.2090 h1        1 MOL      0.109128
    151 H69        -9.0790   -2.0840   -0.4200 hc        1 MOL      0.047711
    152 H70        -8.0920   -2.7750   -1.7660 hc        1 MOL      0.047711
    153 H71        -7.1900   -0.4150   -2.2700 hc        1 MOL      0.000394
    154 H72        -8.1720    0.2000   -0.9780 hc        1 MOL      0.000394
    155 H73        -9.2390    0.4790   -3.2050 hc        1 MOL      0.150658
    156 H74       -10.2030   -0.5630   -2.1950 hc        1 MOL      0.150658
    157 H75        -9.4060   -2.6030   -3.4630 hx        1 MOL      0.019118
    158 H76        -8.0800   -1.8250   -4.1480 hx        1 MOL      0.019118
    159 H77       -10.0380   -2.1230   -5.7070 hn        1 MOL      0.343413
    160 H78       -10.9660   -1.5390   -4.6440 hn        1 MOL      0.343413
    161 H79        -9.9270   -0.5020   -5.4390 hn        1 MOL      0.343413
    162 N14        -5.8400   -1.0870    1.5770 n         1 MOL     -0.311548
    163 C49        -5.7650   -0.1750    2.7160 c3        1 MOL     -0.179412
    164 C50        -6.1490    1.3060    2.3900 c         1 MOL      0.488570
    165 O22        -5.8180    1.7860    1.2670 o         1 MOL     -0.547808
    166 C51        -4.3510   -0.2910    3.2290 c3        1 MOL     -0.094301
    167 C52        -3.9990   -1.7150    3.6740 c3        1 MOL     -0.133939
    168 C53        -2.6160   -1.9340    4.3330 c         1 MOL      0.872902
    169 O23        -2.0320   -0.9630    4.9390 o         1 MOL     -0.812886
    170 O24        -2.0620   -3.0340    4.2050 o         1 MOL     -0.812886
    171 H80        -5.0210   -1.2650    1.0070 hn        1 MOL      0.255691
    172 H81        -6.4460   -0.4170    3.5370 h1        1 MOL      0.112581
    173 H82        -4.1960    0.4030    4.0530 hc        1 MOL      0.081883
    174 H83        -3.6390    0.1290    2.5200 hc        1 MOL      0.081883
    175 H84        -4.1110   -2.3000    2.7640 hc        1 MOL      0.039311
    176 H85        -4.7140   -2.1140    4.3900 hc        1 MOL      0.039311
    177 N15        -6.8770    1.9820    3.2750 n         1 MOL     -0.276413
    178 C54        -7.4760    3.3320    3.1210 c3        1 MOL     -0.110953
    179 H86        -8.4500    3.3540    3.6100 h1        1 MOL      0.089646
    180 H87        -6.8230    4.0740    3.5800 h1        1 MOL      0.089646
    181 H88        -7.5970    3.5570    2.0620 h1        1 MOL      0.089646
    182 H89        -7.0060    1.4610    4.1250 hn        1 MOL      0.241543
    183 Ca1         0.0710    0.2520    4.9480 Ca        1 MOL      1.808757
    184 O25        -1.5980    1.8120    6.4780 oh        1 MOL     -0.928410
    185 H90        -1.3920    2.4870    7.1170 ho        1 MOL      0.449712
    186 H91        -2.5590    1.7610    6.4730 ho        1 MOL      0.449712
    187 O26         2.9010    0.5100    5.1180 oh        1 MOL     -0.928410
    188 H92         3.4870    0.0430    5.7210 ho        1 MOL      0.449712
    189 H93         3.2800    1.3960    5.0530 ho        1 MOL      0.449712
    190 O27         0.6610   -2.3600    4.5150 oh        1 MOL     -0.928410
    191 H94         1.2000   -3.1060    4.7830 ho        1 MOL      0.449712
    192 H95        -0.0960   -2.7470    4.0880 ho        1 MOL      0.449712
    193 O28        -1.2060    2.3630    3.3290 oh        1 MOL     -0.928410
    194 H96        -0.6640    3.1290    3.5330 ho        1 MOL      0.449712
    195 H97        -1.3040    2.3830    2.3770 ho        1 MOL      0.449712
@<TRIPOS>BOND
     1    1    2 1   
     2    1    4 1   
     3    1    5 1   
     4    1    6 1   
     5    2    3 2   
     6    2    7 1   
     7    7    8 1   
     8    7   15 1   
     9    8    9 1   
    10    8   11 1   
    11    8   16 1   
    12    9   10 2   
    13    9   19 1   
    14   11   12 1   
    15   11   17 1   
    16   11   18 1   
    17   12   13 1   
    18   12   14 1   
    19   19   20 1   
    20   19   28 1   
    21   20   21 1   
    22   20   23 1   
    23   20   29 1   
    24   21   22 2   
    25   21   41 1   
    26   23   24 1   
    27   23   30 1   
    28   23   31 1   
    29   24   25 1   
    30   24   32 1   
    31   24   33 1   
    32   25   26 1   
    33   25   34 1   
    34   25   35 1   
    35   26   27 1   
    36   26   36 1   
    37   26   37 1   
    38   27   38 1   
    39   27   39 1   
    40   27   40 1   
    41   41   42 1   
    42   41   49 1   
    43   42   43 1   
    44   42   45 1   
    45   42   50 1   
    46   43   44 2   
    47   43   53 1   
    48   45   46 1   
    49   45   51 1   
    50   45   52 1   
    51   46   47 1   
    52   46   48 1   
    53   53   54 1   
    54   53   57 1   
    55   54   55 1   
    56   54   58 1   
    57   54   59 1   
    58   55   56 2   
    59   55   60 1   
    60   60   61 1   
    61   60   68 1   
    62   61   62 1   
    63   61   64 1   
    64   61   69 1   
    65   62   63 2   
    66   62   72 1   
    67   64   65 1   
    68   64   70 1   
    69   64   71 1   
    70   65   66 1   
    71   65   67 1   
    72   72   73 1   
    73   72   76 1   
    74   73   74 1   
    75   73   77 1   
    76   73   78 1   
    77   74   75 2   
    78   74   79 1   
    79   79   80 1   
    80   79   86 1   
    81   80   81 1   
    82   80   83 1   
    83   80   87 1   
    84   81   82 2   
    85   81   93 1   
    86   83   84 1   
    87   83   85 1   
    88   83   88 1   
    89   84   90 1   
    90   84   91 1   
    91   84   92 1   
    92   85   89 1   
    93   93   94 1   
    94   93  101 1   
    95   94   95 1   
    96   94   97 1   
    97   94  102 1   
    98   95   96 2   
    99   95  112 1   
   100   97   98 1   
   101   97   99 1   
   102   97  103 1   
   103   98  100 1   
   104   98  104 1   
   105   98  105 1   
   106   99  106 1   
   107   99  107 1   
   108   99  108 1   
   109  100  109 1   
   110  100  110 1   
   111  100  111 1   
   112  112  113 1   
   113  112  119 1   
   114  113  114 1   
   115  113  116 1   
   116  113  120 1   
   117  114  115 2   
   118  114  126 1   
   119  116  117 1   
   120  116  118 1   
   121  116  121 1   
   122  117  123 1   
   123  117  124 1   
   124  117  125 1   
   125  118  122 1   
   126  126  127 1   
   127  126  133 1   
   128  127  128 1   
   129  127  130 1   
   130  127  134 1   
   131  128  129 2   
   132  128  140 1   
   133  130  131 1   
   134  130  132 1   
   135  130  135 1   
   136  131  137 1   
   137  131  138 1   
   138  131  139 1   
   139  132  136 1   
   140  140  141 1   
   141  140  149 1   
   142  141  142 1   
   143  141  144 1   
   144  141  150 1   
   145  142  143 2   
   146  142  162 1   
   147  144  145 1   
   148  144  151 1   
   149  144  152 1   
   150  145  146 1   
   151  145  153 1   
   152  145  154 1   
   153  146  147 1   
   154  146  155 1   
   155  146  156 1   
   156  147  148 1   
   157  147  157 1   
   158  147  158 1   
   159  148  159 1   
   160  148  160 1   
   161  148  161 1   
   162  162  163 1   
   163  162  171 1   
   164  163  164 1   
   165  163  166 1   
   166  163  172 1   
   167  164  165 2   
   168  164  177 1   
   169  166  167 1   
   170  166  173 1   
   171  166  174 1   
   172  167  168 1   
   173  167  175 1   
   174  167  176 1   
   175  168  169 1   
   176  168  170 1   
   177  177  178 1   
   178  177  182 1   
   179  178  179 1   
   180  178  180 1   
   181  178  181 1   
   182  184  185 1   
   183  184  186 1   
   184  187  188 1   
   185  187  189 1   
   186  190  191 1   
   187  190  192 1   
   188  193  194 1   
   189  193  195 1   
@<TRIPOS>SUBSTRUCTURE
     1 MOL         1 TEMP              0 ****  ****    0 ROOT
