@<TRIPOS>MOLECULE
MOL
  182   178     1     0     0
SMALL
resp


@<TRIPOS>ATOM
      1 C1          2.5380   -3.8960    6.7020 c3        1 MOL     -0.420688
      2 C2          2.2870   -3.7880    5.1300 c         1 MOL      0.738127
      3 O1          1.2910   -4.2770    4.5820 o         1 MOL     -0.587540
      4 H1          2.2530   -4.8900    7.0470 hc        1 MOL      0.112221
      5 H2          3.5940   -3.7280    6.9140 hc        1 MOL      0.112221
      6 H3          1.9380   -3.1470    7.2190 hc        1 MOL      0.112221
      7 N1          3.2300   -3.0940    4.5190 n         1 MOL     -0.583762
      8 C3          3.2600   -2.8360    3.0400 c3        1 MOL     -0.121793
      9 C4          3.8960   -4.0650    2.2070 c         1 MOL      0.758301
     10 O2          4.7670   -4.8520    2.6540 o         1 MOL     -0.556080
     11 C5          3.9330   -1.4590    2.8270 c3        1 MOL      0.077781
     12 C6          3.7380   -0.9380    1.4230 c         1 MOL      0.479933
     13 O3          3.6320    0.2920    1.2860 o         1 MOL     -0.706261
     14 O4          3.4800   -1.6160    0.4080 o         1 MOL     -0.706261
     15 H4          3.8700   -2.5950    5.1180 hn        1 MOL      0.338520
     16 H5          2.2260   -2.7430    2.7180 h1        1 MOL      0.022476
     17 H6          4.9780   -1.6690    3.0970 hc        1 MOL      0.019551
     18 H7          3.7010   -0.7210    3.5880 hc        1 MOL      0.019551
     19 N2          3.3410   -4.2820    0.9740 n         1 MOL     -0.537315
     20 C7          3.7450   -5.3130   -0.0220 c3        1 MOL      0.075860
     21 C8          4.7420   -4.8110   -1.1500 c         1 MOL      0.472360
     22 O5          5.3470   -5.5730   -1.8640 o         1 MOL     -0.542994
     23 C9          2.5430   -6.0540   -0.5950 c3        1 MOL     -0.207890
     24 C10         1.6810   -5.1690   -1.5650 c3        1 MOL      0.109786
     25 C11         0.6720   -5.9640   -2.3250 c3        1 MOL     -0.111636
     26 C12        -0.3000   -5.1580   -3.2940 c3        1 MOL      0.084943
     27 N3          0.1700   -5.2010   -4.6890 n4        1 MOL     -0.414052
     28 H8          2.7560   -3.5360    0.6020 hn        1 MOL      0.322023
     29 H9          4.3280   -6.0360    0.5490 h1        1 MOL      0.115888
     30 H10         1.9030   -6.3760    0.2260 hc        1 MOL      0.075874
     31 H11         2.8690   -6.8870   -1.2210 hc        1 MOL      0.075874
     32 H12         2.3320   -4.6400   -2.2600 hc        1 MOL     -0.010848
     33 H13         1.1950   -4.4300   -0.9310 hc        1 MOL     -0.010848
     34 H14         0.0580   -6.3830   -1.5240 hc        1 MOL      0.067334
     35 H15         1.1130   -6.7820   -2.8890 hc        1 MOL      0.067334
     36 H16        -0.2570   -4.1280   -2.9520 hx        1 MOL      0.058509
     37 H17        -1.3230   -5.5240   -3.2330 hx        1 MOL      0.058509
     38 H18        -0.4270   -4.5940   -5.2410 hn        1 MOL      0.303374
     39 H19         1.1440   -4.9460   -4.7990 hn        1 MOL      0.303374
     40 H20         0.2060   -6.1440   -5.0370 hn        1 MOL      0.303374
     41 N4          4.9280   -3.4940   -1.2970 n         1 MOL     -0.207319
     42 C13         6.0330   -2.8950   -2.1380 c3        1 MOL      0.157349
     43 C14         7.0560   -2.1330   -1.3170 c         1 MOL      0.454858
     44 O6          8.2150   -2.1390   -1.6320 o         1 MOL     -0.494956
     45 C15         5.3530   -2.0320   -3.2260 c3        1 MOL     -0.221207
     46 C16         4.3300   -1.0500   -2.7180 c         1 MOL      0.763083
     47 O7          4.6000   -0.2370   -1.8700 o         1 MOL     -0.748238
     48 O8          3.2180   -1.0850   -3.2160 o         1 MOL     -0.748238
     49 H21         4.6240   -2.9170   -0.5300 hn        1 MOL     -0.067164
     50 H22         6.5790   -3.7100   -2.6230 h1        1 MOL      0.060443
     51 H23         4.8690   -2.6860   -3.9480 hc        1 MOL      0.054916
     52 H24         6.1500   -1.4840   -3.7280 hc        1 MOL      0.054916
     53 N5          6.6010   -1.5350   -0.2120 n         1 MOL     -0.308597
     54 C17         7.3250   -0.6550    0.6650 c3        1 MOL     -0.194531
     55 C18         7.4760    0.7120    0.0990 c         1 MOL      0.633092
     56 O9          8.4600    1.3890    0.4710 o         1 MOL     -0.603220
     57 H25         5.6010   -1.4630   -0.0590 hn        1 MOL      0.324533
     58 H26         8.2780   -1.1160    0.9200 h1        1 MOL      0.112776
     59 H27         6.7700   -0.5430    1.6060 h1        1 MOL      0.112776
     60 N6          6.4780    1.1800   -0.6450 n         1 MOL     -0.401200
     61 C19         6.4700    2.3960   -1.3900 c3        1 MOL      0.113552
     62 C20         5.1570    3.1650   -1.3420 c         1 MOL      0.553139
     63 O10         4.0830    2.5480   -1.1870 o         1 MOL     -0.536011
     64 C21         6.8670    2.1310   -2.9010 c3        1 MOL     -0.265205
     65 C22         8.1150    1.2720   -3.2390 c         1 MOL      0.656531
     66 N7          9.1800    1.3210   -2.5260 n         1 MOL     -0.761339
     67 O11         8.1860    0.4630   -4.1600 o         1 MOL     -0.564400
     68 H28         5.6150    0.6660   -0.6890 hn        1 MOL      0.319543
     69 H29         7.2210    3.0470   -0.9360 h1        1 MOL      0.002650
     70 H30         7.0060    3.1320   -3.3020 hc        1 MOL      0.058170
     71 H31         6.0380    1.6960   -3.4680 hc        1 MOL      0.058170
     72 H32         9.3520    2.0790   -1.8710 hn        1 MOL      0.377547
     73 H33         9.8890    0.6420   -2.7520 hn        1 MOL      0.377547
     74 N8          5.1950    4.4370   -1.5530 n         1 MOL     -0.388927
     75 C23         3.9990    5.3590   -1.5110 c3        1 MOL     -0.179694
     76 C24         3.1050    5.2020   -0.3260 c         1 MOL      0.610167
     77 O12         3.6370    5.1150    0.7830 o         1 MOL     -0.476049
     78 H34         6.0840    4.9220   -1.5290 hn        1 MOL      0.326259
     79 H35         3.4170    5.1750   -2.4100 h1        1 MOL      0.100904
     80 H36         4.4210    6.3560   -1.6190 h1        1 MOL      0.100904
     81 N9          1.7480    5.0340   -0.4970 n         1 MOL     -0.532657
     82 C25         0.8450    4.6710    0.5930 c3        1 MOL     -0.160101
     83 C26         1.0530    3.2630    1.1280 c         1 MOL      0.677642
     84 O13         1.7340    2.4290    0.5680 o         1 MOL     -0.481996
     85 C27        -0.6350    4.9760    0.1630 c3        1 MOL     -0.033128
     86 C28        -1.0580    6.4360   -0.0150 ca        1 MOL      0.091921
     87 C29        -1.0200    7.2480    1.1470 ca        1 MOL     -0.205692
     88 C30        -1.7980    6.9080   -1.1030 ca        1 MOL     -0.205692
     89 C31        -1.5960    8.5360    1.1200 ca        1 MOL     -0.158447
     90 C32        -2.3610    8.1960   -1.1120 ca        1 MOL     -0.158447
     91 C33        -2.1890    9.0370   -0.0170 ca        1 MOL      0.222413
     92 O14        -2.8570   10.2220   -0.0620 oh        1 MOL     -0.430332
     93 H37         1.3330    5.0840   -1.4090 hn        1 MOL      0.311447
     94 H38         1.0790    5.3390    1.4220 h1        1 MOL      0.131951
     95 H39        -1.3340    4.5160    0.8700 hc        1 MOL      0.051463
     96 H40        -0.9840    4.4050   -0.6980 hc        1 MOL      0.051463
     97 H41        -0.4190    6.9640    2.0070 ha        1 MOL      0.129042
     98 H42        -1.9860    6.2160   -1.9150 ha        1 MOL      0.129042
     99 H43        -1.3910    9.1500    1.9850 ha        1 MOL      0.136566
    100 H44        -3.0200    8.5320   -1.9070 ha        1 MOL      0.136566
    101 H45        -2.6820   10.7160    0.7410 ho        1 MOL      0.349157
    102 N10         0.2960    2.9110    2.1640 n         1 MOL     -0.648774
    103 C34         0.1960    1.5730    2.8580 c3        1 MOL      0.183581
    104 C35        -0.1850    0.4080    1.8270 c         1 MOL      0.409238
    105 O15         0.6280   -0.0990    1.0720 o         1 MOL     -0.406963
    106 C36         1.4480    1.2020    3.6860 c3        1 MOL      0.361269
    107 C37         1.1870   -0.0110    4.6450 c3        1 MOL     -0.173589
    108 C38         1.9170    2.3600    4.4680 c3        1 MOL     -0.247100
    109 C39        -0.0540   -0.1460    5.4510 c3        1 MOL     -0.206344
    110 H46        -0.3120    3.5990    2.5770 hn        1 MOL      0.303005
    111 H47        -0.6700    1.6360    3.5200 h1        1 MOL      0.020418
    112 H48         2.2440    1.0350    2.9580 hc        1 MOL      0.014653
    113 H49         2.1440   -0.1940    5.1250 hc        1 MOL      0.071117
    114 H50         1.0930   -0.8480    3.9520 hc        1 MOL      0.071117
    115 H51         1.1350    2.5800    5.1870 hc        1 MOL      0.041248
    116 H52         2.7540    1.9840    5.0540 hc        1 MOL      0.041248
    117 H53         2.2340    3.2370    3.9050 hc        1 MOL      0.041248
    118 H54         0.0780   -0.7780    6.3230 hc        1 MOL      0.050570
    119 H55        -0.3610    0.8190    5.8670 hc        1 MOL      0.050570
    120 H56        -0.8100   -0.5140    4.7560 hc        1 MOL      0.050570
    121 N11        -1.4400    0.0350    1.8770 n         1 MOL     -0.541750
    122 C40        -1.7920   -1.3260    1.3680 c3        1 MOL     -0.025015
    123 C41        -3.2490   -1.5500    0.9480 c         1 MOL      0.517646
    124 O16        -3.6240   -2.5390    0.2610 o         1 MOL     -0.561799
    125 C42        -1.5420   -2.3680    2.4030 c3        1 MOL      0.081670
    126 O17        -2.5360   -2.1090    3.4600 oh        1 MOL     -0.587784
    127 H57        -2.1360    0.5560    2.3890 hn        1 MOL      0.354005
    128 H58        -1.2510   -1.6220    0.4680 h1        1 MOL      0.073038
    129 H59        -0.5050   -2.2780    2.7410 h1        1 MOL      0.097985
    130 H60        -1.6570   -3.3920    2.0460 h1        1 MOL      0.097985
    131 H61        -2.3260   -2.6510    4.2270 ho        1 MOL      0.408096
    132 N12        -4.1070   -0.6100    1.3270 n         1 MOL     -0.388740
    133 C43        -5.5640   -0.5370    0.8780 c3        1 MOL      0.047633
    134 C44        -5.7020    0.3480   -0.3980 c         1 MOL      0.645853
    135 O18        -4.8480    1.1740   -0.6250 o         1 MOL     -0.599859
    136 C45        -6.2990    0.0710    2.0670 c3        1 MOL     -0.256772
    137 H62        -3.6960    0.1190    1.8820 hn        1 MOL      0.254796
    138 H63        -5.9470   -1.5400    0.6960 h1        1 MOL      0.161710
    139 H64        -6.2470   -0.6480    2.8910 hc        1 MOL      0.085394
    140 H65        -5.9210    1.0110    2.4330 hc        1 MOL      0.085394
    141 H66        -7.3570    0.1630    1.8390 hc        1 MOL      0.085394
    142 N13        -6.7000    0.1630   -1.2490 n         1 MOL     -0.674924
    143 C46        -7.8590   -0.7090   -1.1840 c3        1 MOL      0.568127
    144 C47        -9.1270   -0.1180   -1.8730 c         1 MOL      0.271274
    145 O19        -9.0700    0.6660   -2.8550 o         1 MOL     -0.505562
    146 C48        -7.4420   -2.0490   -1.7920 c3        1 MOL     -0.147282
    147 H67        -6.7810    0.9200   -1.9130 hn        1 MOL      0.316365
    148 H68        -8.1370   -0.8470   -0.1410 h1        1 MOL     -0.133909
    149 H69        -7.0550   -1.9510   -2.8080 hc        1 MOL      0.035616
    150 H70        -6.6980   -2.4680   -1.1120 hc        1 MOL      0.035616
    151 H71        -8.3040   -2.7110   -1.8320 hc        1 MOL      0.035616
    152 N14       -10.3710   -0.6010   -1.5510 n         1 MOL     -0.249208
    153 C49       -10.7430   -1.3440   -0.3220 c3        1 MOL     -0.305521
    154 C50       -10.3790   -0.5890    0.9640 c         1 MOL      0.550004
    155 O20        -9.7280   -1.2660    1.7950 o         1 MOL     -0.520059
    156 C51       -12.2420   -1.7370   -0.3500 c3        1 MOL     -0.065552
    157 C52       -12.5830   -2.8180   -1.3430 c3        1 MOL     -0.049391
    158 C53       -12.7490   -2.3910   -2.7580 c         1 MOL      0.713589
    159 O21       -11.9130   -2.8160   -3.5560 o         1 MOL     -0.676788
    160 O22       -13.7280   -1.6830   -3.0960 o         1 MOL     -0.676788
    161 H72       -11.0320   -0.2070   -2.2120 hn        1 MOL      0.304934
    162 H73       -10.1990   -2.2810   -0.2680 h1        1 MOL      0.182166
    163 H74       -13.0620   -1.0280   -0.4070 hc        1 MOL      0.043433
    164 H75       -12.2970   -2.1580    0.6570 hc        1 MOL      0.043433
    165 H76       -13.5720   -3.1960   -1.1030 hc        1 MOL      0.002670
    166 H77       -11.9450   -3.6850   -1.1750 hc        1 MOL      0.002670
    167 N15       -10.5290    0.7560    1.0850 n         1 MOL     -0.356022
    168 C54        -9.9390    1.6190    2.1010 c3        1 MOL     -0.033420
    169 H78        -9.9520    2.6510    1.7520 h1        1 MOL      0.057830
    170 H79       -10.5130    1.5410    3.0250 h1        1 MOL      0.057830
    171 H80        -8.9090    1.3130    2.2870 h1        1 MOL      0.057830
    172 H81       -11.1610    1.2850    0.4920 hn        1 MOL      0.275739
    173 Ca1         2.3200    0.3760   -1.0250 Ca        1 MOL      1.789608
    174 O23         2.0180    1.6420   -3.2570 oh        1 MOL     -0.853679
    175 H82         1.4130    1.7830   -3.9830 ho        1 MOL      0.418681
    176 H83         2.7720    2.2040   -3.4590 ho        1 MOL      0.418681
    177 O24         0.6300   -1.3970   -2.0130 oh        1 MOL     -0.853679
    178 H84        -0.0770   -1.9820   -1.7630 ho        1 MOL      0.418681
    179 H85         0.6360   -1.4190   -2.9740 ho        1 MOL      0.418681
    180 O25        -0.0430    1.7270   -1.3210 oh        1 MOL     -0.853679
    181 H86        -0.3490    2.4800   -1.8250 ho        1 MOL      0.418681
    182 H87        -0.7800    1.1120   -1.3240 ho        1 MOL      0.418681
@<TRIPOS>BOND
     1    1    2 1   
     2    1    4 1   
     3    1    5 1   
     4    1    6 1   
     5    2    3 2   
     6    2    7 1   
     7    7    8 1   
     8    7   15 1   
     9    8    9 1   
    10    8   11 1   
    11    8   16 1   
    12    9   10 2   
    13    9   19 1   
    14   11   12 1   
    15   11   17 1   
    16   11   18 1   
    17   12   13 1   
    18   12   14 1   
    19   19   20 1   
    20   19   28 1   
    21   20   21 1   
    22   20   23 1   
    23   20   29 1   
    24   21   22 2   
    25   21   41 1   
    26   23   24 1   
    27   23   30 1   
    28   23   31 1   
    29   24   25 1   
    30   24   32 1   
    31   24   33 1   
    32   25   26 1   
    33   25   34 1   
    34   25   35 1   
    35   26   27 1   
    36   26   36 1   
    37   26   37 1   
    38   27   38 1   
    39   27   39 1   
    40   27   40 1   
    41   41   42 1   
    42   41   49 1   
    43   42   43 1   
    44   42   45 1   
    45   42   50 1   
    46   43   44 2   
    47   43   53 1   
    48   45   46 1   
    49   45   51 1   
    50   45   52 1   
    51   46   47 1   
    52   46   48 1   
    53   53   54 1   
    54   53   57 1   
    55   54   55 1   
    56   54   58 1   
    57   54   59 1   
    58   55   56 2   
    59   55   60 1   
    60   60   61 1   
    61   60   68 1   
    62   61   62 1   
    63   61   64 1   
    64   61   69 1   
    65   62   63 2   
    66   62   74 1   
    67   64   65 1   
    68   64   70 1   
    69   64   71 1   
    70   65   66 1   
    71   65   67 2   
    72   66   72 1   
    73   66   73 1   
    74   74   75 1   
    75   74   78 1   
    76   75   76 1   
    77   75   79 1   
    78   75   80 1   
    79   76   77 2   
    80   76   81 1   
    81   81   82 1   
    82   81   93 1   
    83   82   83 1   
    84   82   85 1   
    85   82   94 1   
    86   83   84 2   
    87   83  102 1   
    88   85   86 1   
    89   85   95 1   
    90   85   96 1   
    91   86   87 ar  
    92   86   88 ar  
    93   87   89 ar  
    94   87   97 1   
    95   88   90 ar  
    96   88   98 1   
    97   89   91 ar  
    98   89   99 1   
    99   90   91 ar  
   100   90  100 1   
   101   91   92 1   
   102   92  101 1   
   103  102  103 1   
   104  102  110 1   
   105  103  104 1   
   106  103  106 1   
   107  103  111 1   
   108  104  105 2   
   109  104  121 1   
   110  106  107 1   
   111  106  108 1   
   112  106  112 1   
   113  107  109 1   
   114  107  113 1   
   115  107  114 1   
   116  108  115 1   
   117  108  116 1   
   118  108  117 1   
   119  109  118 1   
   120  109  119 1   
   121  109  120 1   
   122  121  122 1   
   123  121  127 1   
   124  122  123 1   
   125  122  125 1   
   126  122  128 1   
   127  123  124 2   
   128  123  132 1   
   129  125  126 1   
   130  125  129 1   
   131  125  130 1   
   132  126  131 1   
   133  132  133 1   
   134  132  137 1   
   135  133  134 1   
   136  133  136 1   
   137  133  138 1   
   138  134  135 2   
   139  134  142 1   
   140  136  139 1   
   141  136  140 1   
   142  136  141 1   
   143  142  143 1   
   144  142  147 1   
   145  143  144 1   
   146  143  146 1   
   147  143  148 1   
   148  144  145 2   
   149  144  152 1   
   150  146  149 1   
   151  146  150 1   
   152  146  151 1   
   153  152  153 1   
   154  152  161 1   
   155  153  154 1   
   156  153  156 1   
   157  153  162 1   
   158  154  155 2   
   159  154  167 1   
   160  156  157 1   
   161  156  163 1   
   162  156  164 1   
   163  157  158 1   
   164  157  165 1   
   165  157  166 1   
   166  158  159 1   
   167  158  160 1   
   168  167  168 1   
   169  167  172 1   
   170  168  169 1   
   171  168  170 1   
   172  168  171 1   
   173  174  175 1   
   174  174  176 1   
   175  177  178 1   
   176  177  179 1   
   177  180  181 1   
   178  180  182 1   
@<TRIPOS>SUBSTRUCTURE
     1 MOL         1 TEMP              0 ****  ****    0 ROOT
