@<TRIPOS>MOLECULE
MOL
  198   191     1     0     0
SMALL
resp


@<TRIPOS>ATOM
      1 C1         -4.8350    6.4630    1.4750 c3        1 MOL     -0.305274
      2 C2         -6.3090    5.9670    1.3250 c         1 MOL      0.689808
      3 O1         -7.0950    6.5630    0.6130 o         1 MOL     -0.577505
      4 H1         -4.6650    6.7890    2.5010 hc        1 MOL      0.069245
      5 H2         -4.1510    5.6490    1.2340 hc        1 MOL      0.069245
      6 H3         -4.6620    7.2970    0.7950 hc        1 MOL      0.069245
      7 N1         -6.5690    4.8440    1.9450 n         1 MOL     -0.624053
      8 C3         -7.7500    4.0060    1.7800 c3        1 MOL      0.350590
      9 C4         -8.0780    3.4130    0.3540 c         1 MOL      0.450021
     10 O2         -7.2560    3.4850   -0.5570 o         1 MOL     -0.554925
     11 C5         -8.9480    4.6860    2.4250 c3        1 MOL     -0.426646
     12 C6        -10.1650    3.8080    2.9130 c         1 MOL      0.724769
     13 O3        -10.0590    2.6080    2.7390 o         1 MOL     -0.694785
     14 O4        -11.1480    4.3670    3.4080 o         1 MOL     -0.694785
     15 H4         -5.8150    4.3820    2.4310 hn        1 MOL      0.315706
     16 H5         -7.5360    3.1460    2.4100 h1        1 MOL      0.030666
     17 H6         -9.2940    5.5110    1.8060 hc        1 MOL      0.091146
     18 H7         -8.5050    5.1680    3.2940 hc        1 MOL      0.091146
     19 N2         -9.1060    2.6070    0.2190 n         1 MOL     -0.306033
     20 C7         -9.3470    1.8500   -1.0580 c3        1 MOL      0.025687
     21 C8         -8.2700    0.8230   -1.4840 c         1 MOL      0.339334
     22 O5         -8.3590    0.2410   -2.6230 o         1 MOL     -0.539941
     23 C9         -9.7290    2.8410   -2.2250 c3        1 MOL      0.032616
     24 C10       -10.6150    4.0150   -1.8860 c3        1 MOL     -0.182389
     25 C11       -10.3350    5.0510   -2.9520 c3        1 MOL     -0.188792
     26 C12       -11.3320    6.1440   -2.7440 c3        1 MOL      0.118637
     27 N3        -11.1450    7.1930   -3.8260 n4        1 MOL     -0.545634
     28 H8         -9.7740    2.4980    0.9740 hn        1 MOL      0.218806
     29 H9        -10.2070    1.2200   -0.8330 h1        1 MOL      0.091111
     30 H10       -10.1950    2.3340   -3.0760 hc        1 MOL      0.026340
     31 H11        -8.7630    3.1870   -2.6030 hc        1 MOL      0.026340
     32 H12       -10.3240    4.5190   -0.9620 hc        1 MOL      0.078907
     33 H13       -11.6800    3.7780   -1.9100 hc        1 MOL      0.078907
     34 H14       -10.3650    4.6700   -3.9670 hc        1 MOL      0.108215
     35 H15        -9.3570    5.5020   -2.7830 hc        1 MOL      0.108215
     36 H16       -11.1760    6.5320   -1.7360 hx        1 MOL      0.089255
     37 H17       -12.3710    5.8100   -2.6650 hx        1 MOL      0.089255
     38 H18       -11.3630    6.8480   -4.7460 hn        1 MOL      0.368208
     39 H19       -11.8700    7.8660   -3.6480 hn        1 MOL      0.368208
     40 H20       -10.1760    7.5030   -3.7980 hn        1 MOL      0.368208
     41 N4         -7.3850    0.5690   -0.5600 n         1 MOL     -0.285852
     42 C13        -6.4710   -0.5300   -0.6300 c3        1 MOL      0.554964
     43 C14        -6.2280   -1.2760    0.6370 c         1 MOL      0.227132
     44 O6         -5.6990   -0.6490    1.5160 o         1 MOL     -0.531984
     45 C15        -5.2070    0.0780   -1.2250 c3        1 MOL     -0.220763
     46 C16        -4.1520   -0.9440   -1.6910 c         1 MOL      0.690165
     47 O7         -3.0390   -0.5140   -2.0630 o         1 MOL     -0.710568
     48 O8         -4.4870   -2.1260   -1.8330 o         1 MOL     -0.710568
     49 H21        -7.5340    1.0990    0.2870 hn        1 MOL      0.166001
     50 H22        -6.9300   -1.2260   -1.3320 h1        1 MOL     -0.081015
     51 H23        -4.7770    0.7710   -0.5060 hc        1 MOL      0.057022
     52 H24        -5.4220    0.7300   -2.0750 hc        1 MOL      0.057022
     53 N5         -6.4230   -2.5720    0.8400 n         1 MOL     -0.100991
     54 C17        -7.0410   -3.5750   -0.0380 c3        1 MOL     -0.485345
     55 C18        -6.2210   -4.8660   -0.2060 c         1 MOL      0.699297
     56 O9         -6.7140   -6.0270   -0.2220 o         1 MOL     -0.547326
     57 H25        -6.0830   -2.9390    1.7260 hn        1 MOL      0.223624
     58 H26        -7.0920   -3.1870   -1.0470 h1        1 MOL      0.184146
     59 H27        -8.0060   -3.8140    0.3950 h1        1 MOL      0.184146
     60 N6         -4.8700   -4.6650   -0.3040 n         1 MOL     -0.316682
     61 C19        -3.8760   -5.7340   -0.3000 c3        1 MOL     -0.052394
     62 C20        -2.4980   -5.0630   -0.0430 c         1 MOL      0.138783
     63 O10        -2.1540   -3.9450   -0.4280 o         1 MOL     -0.497244
     64 C21        -3.7680   -6.5580   -1.6070 c3        1 MOL      0.155085
     65 C22        -4.1250   -5.7250   -2.8680 c         1 MOL      0.421176
     66 O11        -3.2340   -4.9630   -3.2850 o         1 MOL     -0.603407
     67 O12        -5.2530   -5.8300   -3.4020 o         1 MOL     -0.603407
     68 H28        -4.5250   -3.7460   -0.5210 hn        1 MOL      0.229152
     69 H29        -4.0280   -6.4680    0.4960 h1        1 MOL      0.065213
     70 H30        -4.5230   -7.3350   -1.4790 hc        1 MOL     -0.029414
     71 H31        -2.7670   -6.9740   -1.6940 hc        1 MOL     -0.029414
     72 N7         -1.5430   -5.8080    0.5450 n         1 MOL     -0.096997
     73 C23        -0.1760   -5.3850    0.7290 c3        1 MOL      0.003668
     74 C24        -0.0480   -4.5290    1.9760 c         1 MOL      0.270499
     75 O13         0.5710   -5.0450    2.9030 o         1 MOL     -0.500681
     76 H32        -1.6970   -6.8030    0.6380 hn        1 MOL      0.228719
     77 H33         0.3550   -4.9970   -0.1330 h1        1 MOL      0.038803
     78 H34         0.3670   -6.2720    1.0580 h1        1 MOL      0.038803
     79 N8         -0.5740   -3.2950    1.9620 n         1 MOL      0.043148
     80 C25        -0.7680   -2.4570    3.1230 c3        1 MOL     -0.400930
     81 C26        -0.6340   -1.0070    2.6380 c         1 MOL      0.815888
     82 O14        -1.0720   -0.6000    1.5630 o         1 MOL     -0.549219
     83 C27        -2.1540   -2.6570    3.7810 c3        1 MOL      0.430018
     84 C28        -3.3270   -2.5210    2.7910 c3        1 MOL     -0.220461
     85 O15        -2.1870   -3.9050    4.2830 oh        1 MOL     -0.590477
     86 H35        -0.9980   -3.0200    1.0890 hn        1 MOL      0.135502
     87 H36        -0.0420   -2.6240    3.9210 h1        1 MOL      0.110037
     88 H37        -2.2480   -1.8860    4.5430 h1        1 MOL     -0.049737
     89 H38        -1.4680   -3.9870    4.9150 ho        1 MOL      0.396743
     90 H39        -4.2280   -2.6970    3.3680 hc        1 MOL      0.070292
     91 H40        -3.3600   -1.5030    2.3910 hc        1 MOL      0.070292
     92 H41        -3.1880   -3.2660    2.0030 hc        1 MOL      0.070292
     93 N9          0.0940   -0.1160    3.3670 n         1 MOL     -0.538907
     94 C29         0.5800    1.1090    2.8030 c3        1 MOL     -0.395857
     95 C30         1.7980    0.9820    1.9100 c         1 MOL      0.507147
     96 O16         2.0130    1.7500    0.9170 o         1 MOL     -0.539001
     97 C31         0.7300    2.3200    3.8470 c3        1 MOL      0.270604
     98 C32         1.7640    2.1750    4.9220 c3        1 MOL      0.094715
     99 C33        -0.6360    2.5990    4.4950 c3        1 MOL     -0.409109
    100 C34         1.8130    3.3420    5.8740 c3        1 MOL     -0.188311
    101 H42         0.5300   -0.5280    4.1910 hn        1 MOL      0.321370
    102 H43        -0.1400    1.5150    2.0960 h1        1 MOL      0.237629
    103 H44         1.0030    3.2380    3.3300 hc        1 MOL      0.015762
    104 H45         2.7230    2.0500    4.4270 hc        1 MOL     -0.011227
    105 H46         1.5930    1.2850    5.5300 hc        1 MOL     -0.011227
    106 H47        -0.7420    3.6490    4.7940 hc        1 MOL      0.108877
    107 H48        -1.3730    2.3250    3.7450 hc        1 MOL      0.108877
    108 H49        -0.7980    2.0890    5.4430 hc        1 MOL      0.108877
    109 H50         1.8700    4.2110    5.2180 hc        1 MOL      0.046317
    110 H51         0.9070    3.4060    6.4730 hc        1 MOL      0.046317
    111 H52         2.6740    3.2970    6.5400 hc        1 MOL      0.046317
    112 N10         2.5500   -0.1380    2.0050 n         1 MOL     -0.308420
    113 C35         3.6720   -0.6110    1.1630 c3        1 MOL      0.006004
    114 C36         4.7950   -1.2790    1.9470 c         1 MOL      0.509259
    115 O17         4.5280   -1.8150    3.0630 o         1 MOL     -0.530854
    116 C37         3.1640   -1.7210    0.2110 c3        1 MOL      0.139296
    117 C38         2.6190   -3.0550    0.8270 c3        1 MOL     -0.159130
    118 O18         2.1160   -1.0970   -0.4740 oh        1 MOL     -0.600969
    119 H53         2.2870   -0.8090    2.7180 hn        1 MOL      0.221532
    120 H54         4.0810    0.2390    0.6090 h1        1 MOL      0.094133
    121 H55         3.8840   -2.0050   -0.5690 h1        1 MOL      0.036543
    122 H56         2.4570   -0.3010   -0.9000 ho        1 MOL      0.418673
    123 H57         2.1870   -2.8170    1.7960 hc        1 MOL      0.072969
    124 H58         1.8630   -3.4530    0.1430 hc        1 MOL      0.072969
    125 H59         3.3640   -3.8500    0.8310 hc        1 MOL      0.072969
    126 N11         6.0140   -1.2510    1.4020 n         1 MOL     -0.464597
    127 C39         7.2190   -1.7770    2.1050 c3        1 MOL     -0.036681
    128 C40         8.4280   -0.9100    1.7600 c         1 MOL      0.600411
    129 O19         9.1940   -0.6790    2.6990 o         1 MOL     -0.558257
    130 C41         7.4480   -3.2530    1.7290 c3        1 MOL      0.307685
    131 C42         8.5540   -3.9110    2.5390 c3        1 MOL     -0.549213
    132 O20         7.8520   -3.2740    0.3760 oh        1 MOL     -0.669715
    133 H60         6.0810   -0.7070    0.5530 hn        1 MOL      0.246274
    134 H61         7.0800   -1.7960    3.1840 h1        1 MOL      0.137827
    135 H62         6.5560   -3.8880    1.7560 h1        1 MOL      0.049783
    136 H63         7.7730   -4.1920    0.1000 ho        1 MOL      0.419499
    137 H64         8.7960   -4.8430    2.0330 hc        1 MOL      0.153897
    138 H65         9.4640   -3.3100    2.5570 hc        1 MOL      0.153897
    139 H66         8.1690   -3.9840    3.5560 hc        1 MOL      0.153897
    140 N12         8.6010   -0.4210    0.5300 n         1 MOL     -0.377124
    141 C43         9.5780    0.6050    0.1420 c3        1 MOL     -0.021879
    142 C44         9.0900    1.6450   -0.9950 c         1 MOL      0.388054
    143 O21         8.1640    1.3420   -1.7000 o         1 MOL     -0.481356
    144 C45        10.8300   -0.1670   -0.3170 c3        1 MOL     -0.195671
    145 C46        12.0540    0.6470   -0.7470 c3        1 MOL      0.085700
    146 C47        13.3990   -0.0780   -0.8700 c3        1 MOL     -0.111838
    147 C48        14.4130    0.6080   -1.6590 c3        1 MOL      0.087260
    148 N13        14.6840    1.9970   -1.2080 n4        1 MOL     -0.423906
    149 H67         7.9080   -0.6500   -0.1690 hn        1 MOL      0.287397
    150 H68         9.8950    1.2050    0.9880 h1        1 MOL      0.087712
    151 H69        10.5900   -0.7920   -1.1740 hc        1 MOL      0.097256
    152 H70        11.1480   -0.9080    0.4190 hc        1 MOL      0.097256
    153 H71        12.2960    1.4310   -0.0260 hc        1 MOL      0.045316
    154 H72        11.8410    1.1610   -1.6920 hc        1 MOL      0.045316
    155 H73        13.2660   -1.0250   -1.3880 hc        1 MOL      0.023898
    156 H74        13.7740   -0.3410    0.1200 hc        1 MOL      0.023898
    157 H75        14.0490    0.6130   -2.6930 hx        1 MOL      0.077130
    158 H76        15.3120    0.0060   -1.7240 hx        1 MOL      0.077130
    159 H77        13.8260    2.5090   -1.3880 hn        1 MOL      0.317965
    160 H78        14.8160    2.1510   -0.2170 hn        1 MOL      0.317965
    161 H79        15.3930    2.4480   -1.7690 hn        1 MOL      0.317965
    162 N14         9.6520    2.8520   -1.0960 n         1 MOL     -0.181912
    163 C49         9.2180    3.8200   -2.0930 c3        1 MOL      0.124735
    164 C50         7.6720    4.1600   -2.1130 c         1 MOL      0.333564
    165 O22         7.0720    4.0270   -3.2030 o         1 MOL     -0.517371
    166 C51        10.0330    5.1140   -1.9470 c3        1 MOL     -0.026467
    167 C52        11.4160    5.1440   -2.6710 c3        1 MOL     -0.284870
    168 C53        12.2870    3.9990   -2.3310 c         1 MOL      0.740432
    169 O23        12.4300    3.7120   -1.1150 o         1 MOL     -0.716300
    170 O24        12.7180    3.2080   -3.1510 o         1 MOL     -0.716300
    171 H80        10.4820    2.9030   -0.5250 hn        1 MOL      0.151840
    172 H81         9.4100    3.3650   -3.0700 h1        1 MOL      0.085310
    173 H82        10.2740    5.4170   -0.9160 hc        1 MOL      0.036520
    174 H83         9.3730    5.9230   -2.2610 hc        1 MOL      0.036520
    175 H84        11.9520    6.0870   -2.5460 hc        1 MOL      0.080669
    176 H85        11.1430    5.0410   -3.7180 hc        1 MOL      0.080669
    177 N15         7.0010    4.5520   -1.0320 n         1 MOL     -0.311908
    178 C54         7.3780    4.9690    0.3390 c3        1 MOL     -0.021311
    179 H86         7.5170    6.0500    0.3650 h1        1 MOL      0.046934
    180 H87         6.5870    4.6880    1.0350 h1        1 MOL      0.046934
    181 H88         8.3070    4.4770    0.6260 h1        1 MOL      0.046934
    182 H89         5.9990    4.5280   -1.1890 hn        1 MOL      0.285382
    183 Ca1        -2.0840   -2.7660   -2.8810 Ca        1 MOL      1.750978
    184 O25        -0.0050   -4.6660   -2.7550 oh        1 MOL     -0.819728
    185 H90         0.9570   -4.5920   -2.7200 ho        1 MOL      0.404553
    186 H91        -0.1660   -5.6020   -2.8570 ho        1 MOL      0.404553
    187 O26        -0.5730   -1.7720   -0.7600 oh        1 MOL     -0.819728
    188 H92        -1.0410   -1.2930   -0.0780 ho        1 MOL      0.404553
    189 H93         0.3390   -1.5160   -0.6570 ho        1 MOL      0.404553
    190 O27         0.0020   -1.1970   -3.6880 oh        1 MOL     -0.819728
    191 H94         0.2880   -0.2900   -3.7630 ho        1 MOL      0.404553
    192 H95         0.8150   -1.7030   -3.6270 ho        1 MOL      0.404553
    193 O28        -1.4550   -3.5010   -5.6390 oh        1 MOL     -0.819728
    194 H96        -1.8040   -4.3970   -5.6090 ho        1 MOL      0.404553
    195 H97        -2.0880   -3.0080   -6.1570 ho        1 MOL      0.404553
    196 O29        -3.5310   -1.8720   -5.0210 oh        1 MOL     -0.819728
    197 H98        -3.3540   -1.0340   -5.4460 ho        1 MOL      0.404553
    198 H99        -4.3150   -2.2090   -5.4540 ho        1 MOL      0.404553
@<TRIPOS>BOND
     1    1    2 1   
     2    1    4 1   
     3    1    5 1   
     4    1    6 1   
     5    2    3 2   
     6    2    7 1   
     7    7    8 1   
     8    7   15 1   
     9    8    9 1   
    10    8   11 1   
    11    8   16 1   
    12    9   10 2   
    13    9   19 1   
    14   11   12 1   
    15   11   17 1   
    16   11   18 1   
    17   12   13 1   
    18   12   14 1   
    19   19   20 1   
    20   19   28 1   
    21   20   21 1   
    22   20   23 1   
    23   20   29 1   
    24   21   22 2   
    25   21   41 1   
    26   23   24 1   
    27   23   30 1   
    28   23   31 1   
    29   24   25 1   
    30   24   32 1   
    31   24   33 1   
    32   25   26 1   
    33   25   34 1   
    34   25   35 1   
    35   26   27 1   
    36   26   36 1   
    37   26   37 1   
    38   27   38 1   
    39   27   39 1   
    40   27   40 1   
    41   41   42 1   
    42   41   49 1   
    43   42   43 1   
    44   42   45 1   
    45   42   50 1   
    46   43   44 2   
    47   43   53 1   
    48   45   46 1   
    49   45   51 1   
    50   45   52 1   
    51   46   47 1   
    52   46   48 1   
    53   53   54 1   
    54   53   57 1   
    55   54   55 1   
    56   54   58 1   
    57   54   59 1   
    58   55   56 2   
    59   55   60 1   
    60   60   61 1   
    61   60   68 1   
    62   61   62 1   
    63   61   64 1   
    64   61   69 1   
    65   62   63 2   
    66   62   72 1   
    67   64   65 1   
    68   64   70 1   
    69   64   71 1   
    70   65   66 1   
    71   65   67 1   
    72   72   73 1   
    73   72   76 1   
    74   73   74 1   
    75   73   77 1   
    76   73   78 1   
    77   74   75 2   
    78   74   79 1   
    79   79   80 1   
    80   79   86 1   
    81   80   81 1   
    82   80   83 1   
    83   80   87 1   
    84   81   82 2   
    85   81   93 1   
    86   83   84 1   
    87   83   85 1   
    88   83   88 1   
    89   84   90 1   
    90   84   91 1   
    91   84   92 1   
    92   85   89 1   
    93   93   94 1   
    94   93  101 1   
    95   94   95 1   
    96   94   97 1   
    97   94  102 1   
    98   95   96 2   
    99   95  112 1   
   100   97   98 1   
   101   97   99 1   
   102   97  103 1   
   103   98  100 1   
   104   98  104 1   
   105   98  105 1   
   106   99  106 1   
   107   99  107 1   
   108   99  108 1   
   109  100  109 1   
   110  100  110 1   
   111  100  111 1   
   112  112  113 1   
   113  112  119 1   
   114  113  114 1   
   115  113  116 1   
   116  113  120 1   
   117  114  115 2   
   118  114  126 1   
   119  116  117 1   
   120  116  118 1   
   121  116  121 1   
   122  117  123 1   
   123  117  124 1   
   124  117  125 1   
   125  118  122 1   
   126  126  127 1   
   127  126  133 1   
   128  127  128 1   
   129  127  130 1   
   130  127  134 1   
   131  128  129 2   
   132  128  140 1   
   133  130  131 1   
   134  130  132 1   
   135  130  135 1   
   136  131  137 1   
   137  131  138 1   
   138  131  139 1   
   139  132  136 1   
   140  140  141 1   
   141  140  149 1   
   142  141  142 1   
   143  141  144 1   
   144  141  150 1   
   145  142  143 2   
   146  142  162 1   
   147  144  145 1   
   148  144  151 1   
   149  144  152 1   
   150  145  146 1   
   151  145  153 1   
   152  145  154 1   
   153  146  147 1   
   154  146  155 1   
   155  146  156 1   
   156  147  148 1   
   157  147  157 1   
   158  147  158 1   
   159  148  159 1   
   160  148  160 1   
   161  148  161 1   
   162  162  163 1   
   163  162  171 1   
   164  163  164 1   
   165  163  166 1   
   166  163  172 1   
   167  164  165 2   
   168  164  177 1   
   169  166  167 1   
   170  166  173 1   
   171  166  174 1   
   172  167  168 1   
   173  167  175 1   
   174  167  176 1   
   175  168  169 1   
   176  168  170 1   
   177  177  178 1   
   178  177  182 1   
   179  178  179 1   
   180  178  180 1   
   181  178  181 1   
   182  184  185 1   
   183  184  186 1   
   184  187  188 1   
   185  187  189 1   
   186  190  191 1   
   187  190  192 1   
   188  193  194 1   
   189  193  195 1   
   190  196  197 1   
   191  196  198 1   
@<TRIPOS>SUBSTRUCTURE
     1 MOL         1 TEMP              0 ****  ****    0 ROOT
