@<TRIPOS>MOLECULE
MOL
  195   189     1     0     0
SMALL
resp


@<TRIPOS>ATOM
      1 C1          6.3720    1.1240    5.7240 c3        1 MOL     -0.349311
      2 C2          5.6770    1.0520    4.3130 c         1 MOL      0.630999
      3 O1          5.8430    1.8900    3.4540 o         1 MOL     -0.575523
      4 H1          7.1500    0.3640    5.7850 hc        1 MOL      0.091596
      5 H2          6.8160    2.1100    5.8610 hc        1 MOL      0.091596
      6 H3          5.6310    0.9480    6.5030 hc        1 MOL      0.091596
      7 N1          5.0850   -0.0530    4.0120 n         1 MOL     -0.401187
      8 C3          4.8000   -0.6620    2.6610 c3        1 MOL      0.415891
      9 C4          3.4180   -0.4910    2.2330 c         1 MOL      0.020258
     10 O2          3.1290   -0.6870    1.0480 o         1 MOL     -0.197052
     11 C5          5.1770   -2.1130    2.7990 c3        1 MOL     -0.351226
     12 C6          6.7030   -2.2600    2.7650 c         1 MOL      0.780000
     13 O3          7.3160   -2.2590    3.8730 o         1 MOL     -0.717901
     14 O4          7.3790   -2.3780    1.7270 o         1 MOL     -0.717901
     15 H4          4.8580   -0.6490    4.7980 hn        1 MOL      0.206333
     16 H5          5.4140   -0.1670    1.9000 h1        1 MOL      0.118697
     17 H6          4.7670   -2.7480    2.0100 hc        1 MOL      0.040729
     18 H7          4.8030   -2.5990    3.7030 hc        1 MOL      0.040729
     19 N2          2.5190   -0.0640    3.1480 n         1 MOL     -0.170186
     20 C7          1.0400   -0.1360    2.9040 c3        1 MOL      0.038959
     21 C8          0.4520    1.3230    2.7180 c         1 MOL      0.468559
     22 O5          0.9780    2.1940    3.3470 o         1 MOL     -0.507703
     23 C9          0.4580   -0.8200    4.1640 c3        1 MOL     -0.084743
     24 C10         1.1440   -2.2280    4.3630 c3        1 MOL     -0.013265
     25 C11         0.4840   -3.0070    5.5170 c3        1 MOL     -0.180791
     26 C12         0.7390   -4.4640    5.4160 c3        1 MOL      0.253584
     27 N3          0.0980   -5.3230    6.4510 n4        1 MOL     -0.454942
     28 H8          2.8920    0.3550    3.9830 hn        1 MOL      0.169467
     29 H9          0.8090   -0.7420    2.0260 h1        1 MOL      0.126523
     30 H10        -0.6050   -0.9490    3.9730 hc        1 MOL      0.060353
     31 H11         0.5170   -0.2040    5.0560 hc        1 MOL      0.060353
     32 H12         2.1490   -2.0860    4.7660 hc        1 MOL      0.032776
     33 H13         1.2900   -2.7930    3.4400 hc        1 MOL      0.032776
     34 H14        -0.6070   -2.9370    5.4880 hc        1 MOL      0.054134
     35 H15         0.7790   -2.6350    6.5020 hc        1 MOL      0.054134
     36 H16         1.8110   -4.6350    5.3950 hx        1 MOL      0.034309
     37 H17         0.4890   -4.8440    4.4230 hx        1 MOL      0.034309
     38 H18         0.3210   -5.0420    7.3990 hn        1 MOL      0.322579
     39 H19        -0.8900   -5.1740    6.2780 hn        1 MOL      0.322579
     40 H20         0.4600   -6.2680    6.4870 hn        1 MOL      0.322579
     41 N4         -0.5180    1.6170    1.8330 n         1 MOL     -0.332683
     42 C13        -1.1480    0.8660    0.7890 c3        1 MOL     -0.060352
     43 C14        -1.6620   -0.5550    1.1750 c         1 MOL      0.280878
     44 O6         -1.1200   -1.6240    0.8850 o         1 MOL     -0.459644
     45 C15        -0.3480    0.9870   -0.5710 c3        1 MOL      0.187831
     46 C16        -0.0720    2.4160   -0.9140 c         1 MOL      0.550783
     47 O7         -0.8830    3.2670   -0.5730 o         1 MOL     -0.730987
     48 O8          0.8560    2.7540   -1.5990 o         1 MOL     -0.730987
     49 H21        -0.6460    2.6230    1.7660 hn        1 MOL      0.231430
     50 H22        -2.1300    1.2760    0.5560 h1        1 MOL      0.054908
     51 H23        -0.7910    0.4800   -1.4250 hc        1 MOL      0.005921
     52 H24         0.5590    0.4170   -0.3810 hc        1 MOL      0.005921
     53 N5         -2.7920   -0.6820    1.9220 n         1 MOL     -0.280050
     54 C17        -3.7070    0.4040    2.3450 c3        1 MOL      0.022119
     55 C18        -5.0160   -0.0960    2.9990 c         1 MOL      0.430120
     56 O9         -5.2500   -1.2910    3.1890 o         1 MOL     -0.529752
     57 H25        -3.0910   -1.6170    2.1730 hn        1 MOL      0.269447
     58 H26        -4.1000    0.9410    1.4880 h1        1 MOL      0.052895
     59 H27        -3.1270    1.0610    2.9870 h1        1 MOL      0.052895
     60 N6         -6.0120    0.7630    3.2590 n         1 MOL     -0.364136
     61 C19        -6.1520    2.1540    2.8030 c3        1 MOL     -0.113234
     62 C20        -7.1500    2.3040    1.6930 c         1 MOL      0.517637
     63 O10        -8.0130    1.5200    1.4450 o         1 MOL     -0.414479
     64 C21        -6.3610    3.1180    3.9980 c3        1 MOL     -0.128009
     65 C22        -7.5760    2.8460    4.9380 c         1 MOL      0.700512
     66 O11        -7.3520    2.5710    6.0920 o         1 MOL     -0.663635
     67 O12        -8.7330    2.9790    4.3790 o         1 MOL     -0.663635
     68 H28        -6.8420    0.2940    3.5670 hn        1 MOL      0.340239
     69 H29        -5.2010    2.5270    2.4060 h1        1 MOL      0.073709
     70 H30        -6.3460    4.1060    3.5390 hc        1 MOL      0.005668
     71 H31        -5.4270    3.0630    4.5580 hc        1 MOL      0.005668
     72 N7         -6.9980    3.4870    1.0000 n         1 MOL     -0.427965
     73 C23        -7.3590    3.6680   -0.3920 c3        1 MOL     -0.100503
     74 C24        -6.9430    2.4370   -1.3180 c         1 MOL      0.471163
     75 O13        -7.7260    2.0690   -2.2580 o         1 MOL     -0.525891
     76 H32        -6.2660    4.0520    1.4170 hn        1 MOL      0.281069
     77 H33        -6.8400    4.5210   -0.8340 h1        1 MOL      0.101668
     78 H34        -8.4230    3.8420   -0.5340 h1        1 MOL      0.101668
     79 N8         -5.7160    1.8040   -1.1420 n         1 MOL     -0.428338
     80 C25        -5.2690    0.7080   -2.0260 c3        1 MOL      0.062145
     81 C26        -5.5840   -0.5800   -1.2560 c         1 MOL      0.616456
     82 O14        -5.3730   -0.5580   -0.0200 o         1 MOL     -0.492669
     83 C27        -3.7430    0.7660   -2.1470 c3        1 MOL      0.414168
     84 C28        -3.1080    1.9190   -2.9320 c3        1 MOL     -0.400676
     85 O15        -3.3110   -0.3150   -2.8790 oh        1 MOL     -0.585031
     86 H35        -5.1910    1.9210   -0.2880 hn        1 MOL      0.210692
     87 H36        -5.6770    0.8450   -3.0270 h1        1 MOL      0.100502
     88 H37        -3.1700    0.8290   -1.2250 h1        1 MOL      0.010348
     89 H38        -2.3630   -0.1700   -2.8120 ho        1 MOL      0.352885
     90 H39        -3.5280    2.0160   -3.9400 hc        1 MOL      0.084300
     91 H40        -3.3660    2.8300   -2.3840 hc        1 MOL      0.084300
     92 H41        -2.0330    1.8110   -2.9940 hc        1 MOL      0.084300
     93 N9         -5.7940   -1.7350   -1.9090 n         1 MOL     -0.537256
     94 C29        -5.6600   -3.1430   -1.3170 c3        1 MOL      0.039910
     95 C30        -4.3540   -3.8140   -1.6350 c         1 MOL      0.440912
     96 O16        -4.2590   -4.9930   -1.2290 o         1 MOL     -0.523164
     97 C31        -6.8410   -4.0940   -1.8640 c3        1 MOL      0.131206
     98 C32        -6.7030   -4.1600   -3.3970 c3        1 MOL      0.622773
     99 C33        -8.2010   -3.4640   -1.5550 c3        1 MOL     -0.536088
    100 C34        -6.9780   -5.6000   -3.8050 c3        1 MOL     -0.390306
    101 H42        -5.9160   -1.7690   -2.9110 hn        1 MOL      0.222243
    102 H43        -5.7180   -3.1250   -0.2280 h1        1 MOL      0.124098
    103 H44        -6.6850   -5.0970   -1.4660 hc        1 MOL      0.001036
    104 H45        -5.7370   -3.8990   -3.8330 hc        1 MOL     -0.153865
    105 H46        -7.4460   -3.5300   -3.8740 hc        1 MOL     -0.153865
    106 H47        -8.9620   -4.0190   -2.1040 hc        1 MOL      0.140867
    107 H48        -8.2120   -3.3130   -0.4680 hc        1 MOL      0.140867
    108 H49        -8.3440   -2.4680   -1.9830 hc        1 MOL      0.140867
    109 H50        -7.3710   -5.4790   -4.8150 hc        1 MOL      0.065988
    110 H51        -6.0460   -6.1560   -3.6510 hc        1 MOL      0.065988
    111 H52        -7.8400   -6.0880   -3.3570 hc        1 MOL      0.065988
    112 N10        -3.3190   -3.0830   -2.1600 n         1 MOL     -0.433858
    113 C35        -2.1530   -3.7790   -2.7040 c3        1 MOL      0.177370
    114 C36        -0.9690   -2.9910   -2.2290 c         1 MOL      0.599630
    115 O17        -0.8150   -1.7730   -2.5190 o         1 MOL     -0.498157
    116 C37        -2.2400   -4.0250   -4.2180 c3        1 MOL      0.212594
    117 C38        -2.6270   -2.7860   -5.1260 c3        1 MOL     -0.263064
    118 O18        -3.0950   -5.1280   -4.4890 oh        1 MOL     -0.565704
    119 H53        -3.5140   -2.1460   -2.4960 hn        1 MOL      0.212018
    120 H54        -1.9930   -4.7380   -2.2150 h1        1 MOL      0.059802
    121 H55        -1.1960   -4.1770   -4.4800 h1        1 MOL     -0.005637
    122 H56        -3.2180   -4.9170   -5.4150 ho        1 MOL      0.376744
    123 H57        -1.9760   -1.9350   -4.8920 hc        1 MOL      0.076739
    124 H58        -2.6690   -3.0200   -6.1810 hc        1 MOL      0.076739
    125 H59        -3.6380   -2.4370   -4.8620 hc        1 MOL      0.076739
    126 N11         0.0100   -3.6980   -1.6290 n         1 MOL     -0.645887
    127 C39         1.1120   -3.0430   -0.8500 c3        1 MOL      0.001212
    128 C40         2.3360   -2.8580   -1.7640 c         1 MOL      0.581591
    129 O19         2.4190   -3.4620   -2.8330 o         1 MOL     -0.561257
    130 C41         1.5340   -3.7360    0.4320 c3        1 MOL      0.524523
    131 C42         2.0890   -5.1930    0.2500 c3        1 MOL     -0.340383
    132 O20         0.4410   -3.8110    1.3240 oh        1 MOL     -0.645826
    133 H60        -0.1310   -4.6950   -1.5390 hn        1 MOL      0.348675
    134 H61         0.8160   -2.0380   -0.5370 h1        1 MOL      0.046413
    135 H62         2.3840   -3.1910    0.8380 h1        1 MOL     -0.057995
    136 H63        -0.0300   -2.9790    1.3200 ho        1 MOL      0.360740
    137 H64         3.1700   -5.1330    0.0680 hc        1 MOL      0.080186
    138 H65         1.9150   -5.7530    1.1710 hc        1 MOL      0.080186
    139 H66         1.5770   -5.7200   -0.5560 hc        1 MOL      0.080186
    140 N12         3.2720   -2.0290   -1.3420 n         1 MOL     -0.437312
    141 C43         4.4720   -1.7590   -2.1130 c3        1 MOL      0.033431
    142 C44         4.6530   -0.1970   -2.3130 c         1 MOL      0.501630
    143 O21         4.9790    0.1660   -3.4380 o         1 MOL     -0.549131
    144 C45         5.7250   -2.3760   -1.3760 c3        1 MOL     -0.014174
    145 C46         6.8520   -2.3980   -2.3960 c3        1 MOL     -0.049759
    146 C47         8.0880   -3.1150   -1.9430 c3        1 MOL      0.133115
    147 C48         9.4050   -2.7110   -2.6930 c3        1 MOL     -0.017579
    148 N13        10.5170   -3.5250   -2.2280 n4        1 MOL     -0.273554
    149 H67         3.0270   -1.5520   -0.4880 hn        1 MOL      0.155121
    150 H68         4.3580   -2.1980   -3.1040 h1        1 MOL      0.089267
    151 H69         5.5360   -3.4250   -1.1610 hc        1 MOL      0.023842
    152 H70         5.9250   -1.8840   -0.4180 hc        1 MOL      0.023842
    153 H71         7.0490   -1.3730   -2.7080 hc        1 MOL      0.000821
    154 H72         6.4470   -2.8380   -3.3120 hc        1 MOL      0.000821
    155 H73         7.9690   -4.2010   -1.9820 hc        1 MOL     -0.012662
    156 H74         8.0850   -2.9790   -0.8590 hc        1 MOL     -0.012662
    157 H75         9.5290   -1.6400   -2.5670 hx        1 MOL      0.085473
    158 H76         9.3060   -2.9480   -3.7540 hx        1 MOL      0.085473
    159 H77        10.1860   -4.4720   -2.1390 hn        1 MOL      0.304465
    160 H78        11.2770   -3.5320   -2.8890 hn        1 MOL      0.304465
    161 H79        10.9630   -3.2820   -1.3510 hn        1 MOL      0.304465
    162 N14         4.5590    0.5710   -1.1940 n         1 MOL      0.021678
    163 C49         5.1240    1.9040   -1.2040 c3        1 MOL     -0.639702
    164 C50         6.7160    2.0590   -1.0930 c         1 MOL      0.686749
    165 O22         7.3260    1.2410   -0.3770 o         1 MOL     -0.519989
    166 C51         4.2650    2.6600   -0.1480 c3        1 MOL      0.649515
    167 C52         4.3580    4.2140   -0.2480 c3        1 MOL     -0.402990
    168 C53         4.1990    4.8090   -1.5900 c         1 MOL      0.733974
    169 O23         5.2020    5.0390   -2.3990 o         1 MOL     -0.726101
    170 O24         3.0340    5.2190   -1.8830 o         1 MOL     -0.726101
    171 H80         4.1100    0.2250   -0.3600 hn        1 MOL      0.006634
    172 H81         4.7660    2.3360   -2.1400 h1        1 MOL      0.170856
    173 H82         4.4940    2.2910    0.8550 hc        1 MOL     -0.124471
    174 H83         3.2100    2.4710   -0.3190 hc        1 MOL     -0.124471
    175 H84         5.3130    4.6060    0.1090 hc        1 MOL      0.058411
    176 H85         3.6260    4.6240    0.4470 hc        1 MOL      0.058411
    177 N15         7.2840    3.0640   -1.7570 n         1 MOL     -0.538108
    178 C54         8.6890    3.5760   -1.6400 c3        1 MOL      0.046069
    179 H86         9.3650    2.7420   -1.4540 h1        1 MOL      0.043059
    180 H87         8.9730    4.0740   -2.5670 h1        1 MOL      0.043059
    181 H88         8.7510    4.2830   -0.8130 h1        1 MOL      0.043059
    182 H89         6.5830    3.6770   -2.1320 hn        1 MOL      0.407971
    183 Ca1         0.4940    5.3630   -1.5680 Ca        1 MOL      1.765053
    184 O25        -2.0390    4.9610   -2.4560 oh        1 MOL     -0.861367
    185 H90        -2.8740    4.7010   -2.0680 ho        1 MOL      0.430592
    186 H91        -2.1400    4.7920   -3.3910 ho        1 MOL      0.430592
    187 O26        -0.0570    7.6420   -2.9850 oh        1 MOL     -0.861367
    188 H92         0.3410    8.3670   -2.5110 ho        1 MOL      0.430592
    189 H93        -0.5990    8.0490   -3.6640 ho        1 MOL      0.430592
    190 O27         2.0620    7.7440   -0.7280 oh        1 MOL     -0.861367
    191 H94         2.2320    8.6300   -0.4160 ho        1 MOL      0.430592
    192 H95         2.8540    7.5230   -1.2310 ho        1 MOL      0.430592
    193 O28         0.5470    4.7580   -4.1170 oh        1 MOL     -0.861367
    194 H96         0.3010    3.8470   -4.2480 ho        1 MOL      0.430592
    195 H97         0.8930    5.0430   -4.9680 ho        1 MOL      0.430592
@<TRIPOS>BOND
     1    1    2 1   
     2    1    4 1   
     3    1    5 1   
     4    1    6 1   
     5    2    3 2   
     6    2    7 1   
     7    7    8 1   
     8    7   15 1   
     9    8    9 1   
    10    8   11 1   
    11    8   16 1   
    12    9   10 2   
    13    9   19 1   
    14   11   12 1   
    15   11   17 1   
    16   11   18 1   
    17   12   13 1   
    18   12   14 1   
    19   19   20 1   
    20   19   28 1   
    21   20   21 1   
    22   20   23 1   
    23   20   29 1   
    24   21   22 2   
    25   21   41 1   
    26   23   24 1   
    27   23   30 1   
    28   23   31 1   
    29   24   25 1   
    30   24   32 1   
    31   24   33 1   
    32   25   26 1   
    33   25   34 1   
    34   25   35 1   
    35   26   27 1   
    36   26   36 1   
    37   26   37 1   
    38   27   38 1   
    39   27   39 1   
    40   27   40 1   
    41   41   42 1   
    42   41   49 1   
    43   42   43 1   
    44   42   45 1   
    45   42   50 1   
    46   43   44 2   
    47   43   53 1   
    48   45   46 1   
    49   45   51 1   
    50   45   52 1   
    51   46   47 1   
    52   46   48 1   
    53   53   54 1   
    54   53   57 1   
    55   54   55 1   
    56   54   58 1   
    57   54   59 1   
    58   55   56 2   
    59   55   60 1   
    60   60   61 1   
    61   60   68 1   
    62   61   62 1   
    63   61   64 1   
    64   61   69 1   
    65   62   63 2   
    66   62   72 1   
    67   64   65 1   
    68   64   70 1   
    69   64   71 1   
    70   65   66 1   
    71   65   67 1   
    72   72   73 1   
    73   72   76 1   
    74   73   74 1   
    75   73   77 1   
    76   73   78 1   
    77   74   75 2   
    78   74   79 1   
    79   79   80 1   
    80   79   86 1   
    81   80   81 1   
    82   80   83 1   
    83   80   87 1   
    84   81   82 2   
    85   81   93 1   
    86   83   84 1   
    87   83   85 1   
    88   83   88 1   
    89   84   90 1   
    90   84   91 1   
    91   84   92 1   
    92   85   89 1   
    93   93   94 1   
    94   93  101 1   
    95   94   95 1   
    96   94   97 1   
    97   94  102 1   
    98   95   96 2   
    99   95  112 1   
   100   97   98 1   
   101   97   99 1   
   102   97  103 1   
   103   98  100 1   
   104   98  104 1   
   105   98  105 1   
   106   99  106 1   
   107   99  107 1   
   108   99  108 1   
   109  100  109 1   
   110  100  110 1   
   111  100  111 1   
   112  112  113 1   
   113  112  119 1   
   114  113  114 1   
   115  113  116 1   
   116  113  120 1   
   117  114  115 2   
   118  114  126 1   
   119  116  117 1   
   120  116  118 1   
   121  116  121 1   
   122  117  123 1   
   123  117  124 1   
   124  117  125 1   
   125  118  122 1   
   126  126  127 1   
   127  126  133 1   
   128  127  128 1   
   129  127  130 1   
   130  127  134 1   
   131  128  129 2   
   132  128  140 1   
   133  130  131 1   
   134  130  132 1   
   135  130  135 1   
   136  131  137 1   
   137  131  138 1   
   138  131  139 1   
   139  132  136 1   
   140  140  141 1   
   141  140  149 1   
   142  141  142 1   
   143  141  144 1   
   144  141  150 1   
   145  142  143 2   
   146  142  162 1   
   147  144  145 1   
   148  144  151 1   
   149  144  152 1   
   150  145  146 1   
   151  145  153 1   
   152  145  154 1   
   153  146  147 1   
   154  146  155 1   
   155  146  156 1   
   156  147  148 1   
   157  147  157 1   
   158  147  158 1   
   159  148  159 1   
   160  148  160 1   
   161  148  161 1   
   162  162  163 1   
   163  162  171 1   
   164  163  164 1   
   165  163  166 1   
   166  163  172 1   
   167  164  165 2   
   168  164  177 1   
   169  166  167 1   
   170  166  173 1   
   171  166  174 1   
   172  167  168 1   
   173  167  175 1   
   174  167  176 1   
   175  168  169 1   
   176  168  170 1   
   177  177  178 1   
   178  177  182 1   
   179  178  179 1   
   180  178  180 1   
   181  178  181 1   
   182  184  185 1   
   183  184  186 1   
   184  187  188 1   
   185  187  189 1   
   186  190  191 1   
   187  190  192 1   
   188  193  194 1   
   189  193  195 1   
@<TRIPOS>SUBSTRUCTURE
     1 MOL         1 TEMP              0 ****  ****    0 ROOT
