@<TRIPOS>MOLECULE
MOL
  192   187     1     0     0
SMALL
resp


@<TRIPOS>ATOM
      1 C1          5.5780    4.6070   -2.7680 c3        1 MOL     -0.444910
      2 C2          6.0050    3.5680   -1.6670 c         1 MOL      0.929046
      3 O1          5.3660    3.3460   -0.6930 o         1 MOL     -0.689108
      4 H1          4.6820    4.2500   -3.2760 hc        1 MOL      0.100632
      5 H2          5.3700    5.5680   -2.2990 hc        1 MOL      0.100632
      6 H3          6.3840    4.7210   -3.4920 hc        1 MOL      0.100632
      7 N1          7.1560    2.9540   -1.9370 n         1 MOL     -0.827415
      8 C3          7.5460    1.6430   -1.3520 c3        1 MOL      0.358893
      9 C4          6.3910    0.7150   -1.3730 c         1 MOL      0.304785
     10 O2          5.6180    0.5660   -0.4040 o         1 MOL     -0.560675
     11 C5          8.2960    1.6950    0.0050 c3        1 MOL     -0.053345
     12 C6          7.9140    2.8200    0.9880 c         1 MOL      0.699236
     13 O3          6.8340    2.6510    1.6190 o         1 MOL     -0.724689
     14 O4          8.6580    3.7900    1.1760 o         1 MOL     -0.724689
     15 H4          7.8220    3.3990   -2.5450 hn        1 MOL      0.366362
     16 H5          8.1980    1.1470   -2.0630 h1        1 MOL     -0.010884
     17 H6          9.3530    1.7090   -0.2380 hc        1 MOL      0.003625
     18 H7          8.0630    0.7580    0.5000 hc        1 MOL      0.003625
     19 N2          6.1200    0.0190   -2.5010 n         1 MOL     -0.465644
     20 C7          5.1240   -1.0410   -2.7390 c3        1 MOL     -0.032396
     21 C8          5.4250   -2.3870   -2.1410 c         1 MOL      0.503288
     22 O5          5.4520   -3.3210   -2.8910 o         1 MOL     -0.549760
     23 C9          3.7090   -0.5310   -2.4220 c3        1 MOL      0.260575
     24 C10         2.7450   -1.5610   -3.0350 c3        1 MOL     -0.091467
     25 C11         3.4190    0.8960   -2.9950 c3        1 MOL     -0.170947
     26 C12         2.7600   -1.6080   -4.5810 c3        1 MOL     -0.491737
     27 H8          6.7880    0.1750   -3.2510 hn        1 MOL      0.293448
     28 H9          5.2060   -1.0380   -3.8290 h1        1 MOL      0.077206
     29 H10         3.5490   -0.6290   -1.3560 hc        1 MOL     -0.092881
     30 H11         1.7510   -1.2800   -2.6800 hc        1 MOL      0.099632
     31 H12         2.9650   -2.4690   -2.4630 hc        1 MOL      0.099632
     32 H13         2.4350    1.2690   -2.7060 hc        1 MOL      0.043067
     33 H14         4.0990    1.6120   -2.5170 hc        1 MOL      0.043067
     34 H15         3.5750    0.9490   -4.0690 hc        1 MOL      0.043067
     35 H16         3.7420   -1.7030   -5.0610 hc        1 MOL      0.117136
     36 H17         2.2960   -2.5240   -4.9320 hc        1 MOL      0.117136
     37 H18         2.2580   -0.7010   -4.9240 hc        1 MOL      0.117136
     38 N3          5.7990   -2.5340   -0.8570 n         1 MOL     -0.299733
     39 C13         6.2210   -3.8280   -0.2770 c3        1 MOL      0.055152
     40 C14         5.1370   -4.9210   -0.3700 c         1 MOL      0.498988
     41 O6          5.5420   -6.0500   -0.7050 o         1 MOL     -0.581570
     42 C15         6.6750   -3.6690    1.2220 c3        1 MOL     -0.227783
     43 C16         7.8330   -2.6780    1.4390 c         1 MOL      0.710991
     44 O7          8.5810   -2.4970    0.4580 o         1 MOL     -0.715221
     45 O8          7.8210   -1.8720    2.4110 o         1 MOL     -0.715221
     46 H19         5.9540   -1.6720   -0.3500 hn        1 MOL      0.362421
     47 H20         7.1610   -4.1200   -0.7610 h1        1 MOL      0.066441
     48 H21         7.0240   -4.6070    1.6530 hc        1 MOL      0.047773
     49 H22         5.8300   -3.4000    1.8600 hc        1 MOL      0.047773
     50 N4          3.8080   -4.6960   -0.2050 n         1 MOL     -0.452776
     51 C17         3.1570   -3.5500    0.4410 c3        1 MOL      0.303464
     52 C18         1.9660   -4.0290    1.3320 c         1 MOL      0.403169
     53 O9          1.6300   -5.1830    1.1520 o         1 MOL     -0.541474
     54 H23         3.2650   -5.5440   -0.2750 hn        1 MOL      0.269210
     55 H24         2.8460   -2.8490   -0.3320 h1        1 MOL     -0.046580
     56 H25         3.8810   -2.9950    1.0280 h1        1 MOL     -0.046580
     57 N5          1.4520   -3.2910    2.3310 n         1 MOL     -0.322864
     58 C19         1.8990   -1.9960    2.9190 c3        1 MOL      0.401071
     59 C20         2.1400   -0.8630    1.8740 c         1 MOL      0.111609
     60 O10         3.2840   -0.4600    1.7020 o         1 MOL     -0.399737
     61 C21         2.9490   -2.2350    4.0530 c3        1 MOL     -0.605336
     62 C22         3.3000   -0.9960    4.9360 c         1 MOL      0.760865
     63 O11         4.4520   -0.6900    5.3340 o         1 MOL     -0.666017
     64 O12         2.4000   -0.1420    5.0930 o         1 MOL     -0.666017
     65 H26         0.7290   -3.8540    2.7490 hn        1 MOL      0.204428
     66 H27         1.0430   -1.5720    3.4440 h1        1 MOL     -0.013910
     67 H28         3.8390   -2.7230    3.6810 hc        1 MOL      0.134350
     68 H29         2.5870   -2.9860    4.7590 hc        1 MOL      0.134350
     69 N6          1.1720   -0.4670    1.0380 n         1 MOL     -0.035735
     70 C23        -0.2350   -1.0060    0.9770 c3        1 MOL     -0.107720
     71 C24        -0.3930   -2.2880    0.1350 c         1 MOL      0.353051
     72 O13         0.4050   -2.6360   -0.7450 o         1 MOL     -0.411161
     73 H30         1.4360    0.3030    0.4460 hn        1 MOL      0.067725
     74 H31        -0.8690   -0.2520    0.5170 h1        1 MOL      0.048705
     75 H32        -0.6190   -1.1780    1.9790 h1        1 MOL      0.048705
     76 N7         -1.4130   -3.0860    0.3980 n         1 MOL     -0.403436
     77 C25        -1.6510   -4.3380   -0.3050 c3        1 MOL      0.017553
     78 C26        -1.9150   -4.2200   -1.8000 c         1 MOL      0.518335
     79 O14        -1.8170   -5.2100   -2.5150 o         1 MOL     -0.493111
     80 C27        -2.8800   -5.0070    0.3670 c3        1 MOL      0.122727
     81 C28        -2.6670   -5.4150    1.8780 c3        1 MOL     -0.225259
     82 C29        -4.0180   -5.8650    2.5220 c         1 MOL      0.656942
     83 N8         -4.1630   -6.0320    3.8190 n         1 MOL     -0.817609
     84 O15        -5.0610   -6.0550    1.8630 o         1 MOL     -0.533450
     85 H33        -2.0580   -2.8350    1.1400 hn        1 MOL      0.282026
     86 H34        -0.7430   -4.9410   -0.2780 h1        1 MOL      0.088240
     87 H35        -3.1000   -5.8950   -0.2180 hc        1 MOL      0.007075
     88 H36        -3.7470   -4.3410    0.3500 hc        1 MOL      0.007075
     89 H37        -2.3680   -4.5910    2.5280 hc        1 MOL      0.063412
     90 H38        -1.9400   -6.2130    2.0040 hc        1 MOL      0.063412
     91 H39        -3.4630   -5.6810    4.4500 hn        1 MOL      0.360758
     92 H40        -5.0510   -6.2670    4.2460 hn        1 MOL      0.360758
     93 N9         -2.5310   -3.0460   -2.1880 n         1 MOL     -0.412341
     94 C30        -2.9180   -2.7930   -3.6060 c3        1 MOL     -0.136395
     95 C31        -4.3670   -2.2630   -3.7650 c         1 MOL      0.651777
     96 O16        -4.9220   -2.3590   -4.8360 o         1 MOL     -0.557877
     97 C32        -2.0040   -1.7770   -4.2400 c3        1 MOL      0.146624
     98 C33        -0.5770   -2.1710   -4.5690 c3        1 MOL     -0.180436
     99 C34        -1.9910   -0.4120   -3.4640 c3        1 MOL     -0.180436
    100 H41        -2.6050   -2.2620   -1.5650 hn        1 MOL      0.271088
    101 H42        -2.8840   -3.7270   -4.1810 h1        1 MOL      0.130139
    102 H43        -2.4150   -1.5520   -5.2200 hc        1 MOL     -0.006320
    103 H44        -0.4360   -3.1920   -4.9130 hc        1 MOL      0.052380
    104 H45        -0.2410   -1.4670   -5.3270 hc        1 MOL      0.052380
    105 H46        -0.0540   -2.0130   -3.6180 hc        1 MOL      0.052380
    106 H47        -2.9210    0.1200   -3.2880 hc        1 MOL      0.052380
    107 H48        -1.5750   -0.5930   -2.4780 hc        1 MOL      0.052380
    108 H49        -1.2610    0.1790   -4.0100 hc        1 MOL      0.052380
    109 N10        -5.0010   -1.7530   -2.6830 n         1 MOL     -0.518694
    110 C35        -6.4240   -1.1840   -2.7000 c3        1 MOL      0.073565
    111 C36        -6.6310    0.1200   -1.8910 c         1 MOL      0.422761
    112 O17        -7.6780    0.7810   -2.0200 o         1 MOL     -0.549726
    113 C37        -7.5250   -2.2170   -2.1510 c3        1 MOL     -0.587988
    114 C38        -7.1980   -2.8020   -0.8450 c         1 MOL      0.802397
    115 N11        -7.6730   -2.2310    0.2330 n         1 MOL     -0.858656
    116 O18        -6.7480   -3.9450   -0.7440 o         1 MOL     -0.600740
    117 H50        -4.4630   -1.7300   -1.8230 hn        1 MOL      0.246085
    118 H51        -6.6260   -0.9860   -3.7600 h1        1 MOL      0.133541
    119 H52        -7.4390   -3.0330   -2.8690 hc        1 MOL      0.203062
    120 H53        -8.5540   -1.8480   -2.1970 hc        1 MOL      0.203062
    121 H54        -7.9570   -1.2620    0.1480 hn        1 MOL      0.385852
    122 H55        -7.5220   -2.7490    1.0770 hn        1 MOL      0.385852
    123 N12        -5.7420    0.5780   -1.0130 n         1 MOL     -0.224199
    124 C39        -5.9350    1.7690   -0.1380 c3        1 MOL     -0.189864
    125 C40        -4.7090    2.6680   -0.0610 c         1 MOL      0.590710
    126 O19        -3.6070    2.0870   -0.2090 o         1 MOL     -0.453024
    127 C41        -6.3110    1.3610    1.3400 c3        1 MOL     -0.067087
    128 C42        -7.5600    0.5870    1.5930 ca        1 MOL     -0.070586
    129 C43        -8.7640    0.7060    0.8420 ca        1 MOL     -0.062907
    130 C44        -7.5830   -0.3440    2.6650 ca        1 MOL     -0.062907
    131 C45        -9.9680    0.1510    1.1840 ca        1 MOL     -0.289972
    132 C46        -8.7780   -0.9250    3.1380 ca        1 MOL     -0.289972
    133 C47        -9.9590   -0.5570    2.4200 ca        1 MOL      0.328792
    134 O20       -11.2010   -0.9840    2.9200 oh        1 MOL     -0.504101
    135 H56        -4.8410    0.1330   -0.8780 hn        1 MOL      0.210071
    136 H57        -6.7560    2.3600   -0.5540 h1        1 MOL      0.131821
    137 H58        -6.2710    2.1770    2.0620 hc        1 MOL      0.098557
    138 H59        -5.4530    0.7690    1.6490 hc        1 MOL      0.098557
    139 H60        -8.7560    1.3470   -0.0300 ha        1 MOL      0.115349
    140 H61        -6.6440   -0.5940    3.1180 ha        1 MOL      0.115349
    141 H62       -10.8930    0.3660    0.6710 ha        1 MOL      0.169370
    142 H63        -8.8410   -1.4970    4.0450 ha        1 MOL      0.169370
    143 H64       -11.9390   -0.6810    2.3760 ho        1 MOL      0.348697
    144 N13        -4.9520    3.9230    0.2220 n         1 MOL     -0.596049
    145 C48        -4.0010    5.0000    0.6930 c3        1 MOL      0.055876
    146 C49        -2.7480    5.2200   -0.2490 c         1 MOL      0.200635
    147 O21        -2.0910    6.2190   -0.0970 o         1 MOL     -0.472860
    148 C50        -3.5820    4.7920    2.2040 c3        1 MOL      0.082360
    149 C51        -4.7900    4.8420    3.0890 c3        1 MOL     -0.210757
    150 C52        -4.3500    5.0440    4.5590 c         1 MOL      0.696826
    151 O22        -4.4300    6.1770    5.0790 o         1 MOL     -0.724201
    152 O23        -3.9030    4.0760    5.2110 o         1 MOL     -0.724201
    153 H65        -5.8700    4.2830   -0.0010 hn        1 MOL      0.332178
    154 H66        -4.5660    5.9300    0.6150 h1        1 MOL      0.103866
    155 H67        -2.9690    5.6720    2.3840 hc        1 MOL      0.042334
    156 H68        -3.0220    3.8750    2.3630 hc        1 MOL      0.042334
    157 H69        -5.3090    3.8820    3.0230 hc        1 MOL      0.008876
    158 H70        -5.4210    5.7040    2.9010 hc        1 MOL      0.008876
    159 N14        -2.2570    4.2950   -1.0600 n         1 MOL     -0.006491
    160 C53        -1.1500    4.5300   -1.9870 c3        1 MOL     -0.045387
    161 C54        -1.5370    5.3260   -3.2850 c         1 MOL      0.523201
    162 O24        -0.7400    6.1650   -3.7310 o         1 MOL     -0.530650
    163 C55        -0.5270    3.1740   -2.3740 c3        1 MOL     -0.393402
    164 C56         0.0390    2.2590   -1.2920 c3        1 MOL      0.484683
    165 C57         1.3430    2.7370   -0.6750 c         1 MOL      0.550578
    166 O25         2.1070    1.9070   -0.1080 o         1 MOL     -0.603886
    167 O26         1.5990    3.9360   -0.5920 o         1 MOL     -0.603886
    168 H71        -2.7570    3.4180   -1.0830 hn        1 MOL      0.129754
    169 H72        -0.4260    5.2090   -1.5290 h1        1 MOL      0.116417
    170 H73         0.2940    3.4050   -3.0470 hc        1 MOL      0.066400
    171 H74        -1.2220    2.5360   -2.9260 hc        1 MOL      0.066400
    172 H75         0.2270    1.3020   -1.7740 hc        1 MOL     -0.134845
    173 H76        -0.8200    2.1210   -0.6270 hc        1 MOL     -0.134845
    174 N15        -2.7590    5.1140   -3.7880 n         1 MOL     -0.285413
    175 C58        -3.4770    5.8860   -4.7770 c3        1 MOL     -0.266873
    176 H77        -4.2110    5.2490   -5.2720 h1        1 MOL      0.111157
    177 H78        -3.9890    6.7160   -4.2890 h1        1 MOL      0.111157
    178 H79        -2.7750    6.2750   -5.5150 h1        1 MOL      0.111157
    179 H80        -3.3280    4.4470   -3.2850 hn        1 MOL      0.217255
    180 Ca1         4.3700    2.0180    1.3920 Ca        1 MOL      1.782543
    181 O27         3.2190    4.3770    1.3670 oh        1 MOL     -0.799991
    182 H81         2.3770    4.3440    0.9130 ho        1 MOL      0.380598
    183 H82         3.3730    5.3110    1.5130 ho        1 MOL      0.380598
    184 O28         2.4460    1.8160    3.1780 oh        1 MOL     -0.799991
    185 H83         2.3100    1.2040    3.9000 ho        1 MOL      0.380598
    186 H84         1.6510    2.3420    3.1430 ho        1 MOL      0.380598
    187 O29         4.8300    3.5080    3.6160 oh        1 MOL     -0.799991
    188 H85         5.4130    4.1140    3.1650 ho        1 MOL      0.380598
    189 H86         5.1770    3.4430    4.4970 ho        1 MOL      0.380598
    190 O30         5.7240    0.2540    2.9300 oh        1 MOL     -0.799991
    191 H87         6.4140   -0.3880    2.7770 ho        1 MOL      0.380598
    192 H88         5.2780   -0.0490    3.7230 ho        1 MOL      0.380598
@<TRIPOS>BOND
     1    1    2 1   
     2    1    4 1   
     3    1    5 1   
     4    1    6 1   
     5    2    3 2   
     6    2    7 1   
     7    7    8 1   
     8    7   15 1   
     9    8    9 1   
    10    8   11 1   
    11    8   16 1   
    12    9   10 2   
    13    9   19 1   
    14   11   12 1   
    15   11   17 1   
    16   11   18 1   
    17   12   13 1   
    18   12   14 1   
    19   19   20 1   
    20   19   27 1   
    21   20   21 1   
    22   20   23 1   
    23   20   28 1   
    24   21   22 2   
    25   21   38 1   
    26   23   24 1   
    27   23   25 1   
    28   23   29 1   
    29   24   26 1   
    30   24   30 1   
    31   24   31 1   
    32   25   32 1   
    33   25   33 1   
    34   25   34 1   
    35   26   35 1   
    36   26   36 1   
    37   26   37 1   
    38   38   39 1   
    39   38   46 1   
    40   39   40 1   
    41   39   42 1   
    42   39   47 1   
    43   40   41 2   
    44   40   50 1   
    45   42   43 1   
    46   42   48 1   
    47   42   49 1   
    48   43   44 1   
    49   43   45 1   
    50   50   51 1   
    51   50   54 1   
    52   51   52 1   
    53   51   55 1   
    54   51   56 1   
    55   52   53 2   
    56   52   57 1   
    57   57   58 1   
    58   57   65 1   
    59   58   59 1   
    60   58   61 1   
    61   58   66 1   
    62   59   60 2   
    63   59   69 1   
    64   61   62 1   
    65   61   67 1   
    66   61   68 1   
    67   62   63 1   
    68   62   64 1   
    69   69   70 1   
    70   69   73 1   
    71   70   71 1   
    72   70   74 1   
    73   70   75 1   
    74   71   72 2   
    75   71   76 1   
    76   76   77 1   
    77   76   85 1   
    78   77   78 1   
    79   77   80 1   
    80   77   86 1   
    81   78   79 2   
    82   78   93 1   
    83   80   81 1   
    84   80   87 1   
    85   80   88 1   
    86   81   82 1   
    87   81   89 1   
    88   81   90 1   
    89   82   83 1   
    90   82   84 2   
    91   83   91 1   
    92   83   92 1   
    93   93   94 1   
    94   93  100 1   
    95   94   95 1   
    96   94   97 1   
    97   94  101 1   
    98   95   96 2   
    99   95  109 1   
   100   97   98 1   
   101   97   99 1   
   102   97  102 1   
   103   98  103 1   
   104   98  104 1   
   105   98  105 1   
   106   99  106 1   
   107   99  107 1   
   108   99  108 1   
   109  109  110 1   
   110  109  117 1   
   111  110  111 1   
   112  110  113 1   
   113  110  118 1   
   114  111  112 2   
   115  111  123 1   
   116  113  114 1   
   117  113  119 1   
   118  113  120 1   
   119  114  115 1   
   120  114  116 2   
   121  115  121 1   
   122  115  122 1   
   123  123  124 1   
   124  123  135 1   
   125  124  125 1   
   126  124  127 1   
   127  124  136 1   
   128  125  126 2   
   129  125  144 1   
   130  127  128 1   
   131  127  137 1   
   132  127  138 1   
   133  128  129 ar  
   134  128  130 ar  
   135  129  131 ar  
   136  129  139 1   
   137  130  132 ar  
   138  130  140 1   
   139  131  133 ar  
   140  131  141 1   
   141  132  133 ar  
   142  132  142 1   
   143  133  134 1   
   144  134  143 1   
   145  144  145 1   
   146  144  153 1   
   147  145  146 1   
   148  145  148 1   
   149  145  154 1   
   150  146  147 2   
   151  146  159 1   
   152  148  149 1   
   153  148  155 1   
   154  148  156 1   
   155  149  150 1   
   156  149  157 1   
   157  149  158 1   
   158  150  151 1   
   159  150  152 1   
   160  159  160 1   
   161  159  168 1   
   162  160  161 1   
   163  160  163 1   
   164  160  169 1   
   165  161  162 2   
   166  161  174 1   
   167  163  164 1   
   168  163  170 1   
   169  163  171 1   
   170  164  165 1   
   171  164  172 1   
   172  164  173 1   
   173  165  166 1   
   174  165  167 1   
   175  174  175 1   
   176  174  179 1   
   177  175  176 1   
   178  175  177 1   
   179  175  178 1   
   180  181  182 1   
   181  181  183 1   
   182  184  185 1   
   183  184  186 1   
   184  187  188 1   
   185  187  189 1   
   186  190  191 1   
   187  190  192 1   
@<TRIPOS>SUBSTRUCTURE
     1 MOL         1 TEMP              0 ****  ****    0 ROOT
