@<TRIPOS>MOLECULE
MOL
  181   177     1     0     0
SMALL
resp


@<TRIPOS>ATOM
      1 C1         -2.0220    5.3110    3.0890 c3        1 MOL     -0.358440
      2 C2         -3.3110    5.6650    2.2700 c         1 MOL      0.701989
      3 O1         -3.2790    6.4570    1.3900 o         1 MOL     -0.582832
      4 H1         -1.2050    5.9620    2.7780 hc        1 MOL      0.078847
      5 H2         -2.2150    5.4540    4.1520 hc        1 MOL      0.078847
      6 H3         -1.7480    4.2720    2.9050 hc        1 MOL      0.078847
      7 N1         -4.3560    4.9640    2.5930 n         1 MOL     -0.535073
      8 C3         -5.7090    5.3610    2.1920 c3        1 MOL      0.233745
      9 C4         -6.0430    4.7330    0.7960 c         1 MOL      0.519668
     10 O2         -6.8240    3.8180    0.6960 o         1 MOL     -0.449665
     11 C5         -6.7210    4.8740    3.2680 c3        1 MOL     -0.353724
     12 C6         -8.1830    5.3060    2.9880 c         1 MOL      0.796253
     13 O3         -8.3600    6.5020    2.8150 o         1 MOL     -0.753961
     14 O4         -9.1100    4.4910    3.0110 o         1 MOL     -0.753961
     15 H4         -4.1880    4.2090    3.2480 hn        1 MOL      0.293153
     16 H5         -5.7250    6.4440    2.0680 h1        1 MOL      0.017656
     17 H6         -6.4120    5.3070    4.2210 hc        1 MOL      0.044734
     18 H7         -6.6400    3.7900    3.3050 hc        1 MOL      0.044734
     19 N2         -5.1450    5.0450   -0.1760 n         1 MOL     -0.613978
     20 C7         -5.0410    4.3760   -1.5220 c3        1 MOL      0.513921
     21 C8         -3.5410    4.1430   -1.8910 c         1 MOL      0.355483
     22 O5         -2.6980    4.9560   -1.5390 o         1 MOL     -0.497104
     23 C9         -5.8250    5.2060   -2.6160 c3        1 MOL     -0.421027
     24 H8         -4.4100    5.7230   -0.0370 hn        1 MOL      0.293028
     25 H9         -5.4820    3.3910   -1.4150 h1        1 MOL     -0.061735
     26 H10        -5.3620    6.1820   -2.7280 hc        1 MOL      0.095519
     27 H11        -5.6990    4.7170   -3.5840 hc        1 MOL      0.095519
     28 H12        -6.8490    5.3820   -2.2730 hc        1 MOL      0.095519
     29 N3         -3.2360    3.0810   -2.6780 n         1 MOL     -0.349549
     30 C10        -4.1510    2.1650   -3.3040 c3        1 MOL      0.070695
     31 C11        -4.4600    1.0550   -2.2770 c         1 MOL      0.733068
     32 O6         -3.8620    1.0740   -1.2090 o         1 MOL     -0.536255
     33 C12        -3.4590    1.5950   -4.5540 c3        1 MOL     -0.372280
     34 C13        -2.0650    1.0200   -4.2810 c         1 MOL      0.789624
     35 O7         -1.0860    1.7760   -4.3600 o         1 MOL     -0.726870
     36 O8         -1.9660   -0.0590   -3.6470 o         1 MOL     -0.726870
     37 H13        -2.2670    2.9070   -2.8980 hn        1 MOL      0.250107
     38 H14        -5.1200    2.6070   -3.5600 h1        1 MOL      0.053155
     39 H15        -3.3250    2.4340   -5.2430 hc        1 MOL      0.080235
     40 H16        -4.0790    0.9150   -5.1400 hc        1 MOL      0.080235
     41 N4         -5.4040    0.1610   -2.5940 n         1 MOL     -0.756783
     42 C14        -5.7620   -0.9230   -1.7000 c3        1 MOL      0.133854
     43 C15        -6.9510   -0.5860   -0.7560 c         1 MOL      0.549945
     44 O9         -7.4430    0.5620   -0.5720 o         1 MOL     -0.498111
     45 H17        -5.9470    0.1890   -3.4470 hn        1 MOL      0.369217
     46 H18        -4.9610   -1.3500   -1.1080 h1        1 MOL      0.071564
     47 H19        -6.0270   -1.7510   -2.3570 h1        1 MOL      0.071564
     48 N5         -7.6230   -1.5820   -0.1560 n         1 MOL     -0.512365
     49 C16        -7.2970   -2.9940   -0.0700 c3        1 MOL     -0.057571
     50 C17        -6.7760   -3.4910    1.2960 c         1 MOL      0.692386
     51 O10        -7.5910   -3.4620    2.2250 o         1 MOL     -0.560726
     52 C18        -8.5730   -3.7930   -0.4630 c3        1 MOL     -0.157309
     53 C19        -8.9270   -3.4100   -1.8780 c         1 MOL      0.636222
     54 N6         -9.7870   -2.4690   -2.0560 n         1 MOL     -0.759899
     55 O11        -8.4500   -4.0520   -2.8030 o         1 MOL     -0.586385
     56 H20        -8.4620   -1.3500    0.3460 hn        1 MOL      0.338241
     57 H21        -6.4280   -3.1490   -0.7040 h1        1 MOL      0.002914
     58 H22        -9.4020   -3.4980    0.1810 hc        1 MOL      0.066720
     59 H23        -8.4810   -4.8730   -0.3650 hc        1 MOL      0.066720
     60 H24       -10.1670   -1.9570   -1.2700 hn        1 MOL      0.371066
     61 H25        -9.9100   -2.2980   -3.0480 hn        1 MOL      0.371066
     62 N7         -5.5660   -3.9590    1.3990 n         1 MOL     -0.486817
     63 C20        -5.1760   -4.6900    2.6380 c3        1 MOL     -0.089959
     64 C21        -3.7430   -5.1080    2.9200 c         1 MOL      0.506779
     65 O12        -3.5300   -5.9110    3.7980 o         1 MOL     -0.514609
     66 H26        -4.8760   -3.8830    0.6640 hn        1 MOL      0.329402
     67 H27        -5.6560   -5.6630    2.7110 h1        1 MOL      0.106314
     68 H28        -5.5600   -4.1480    3.5020 h1        1 MOL      0.106314
     69 N8         -2.7790   -4.5980    2.0890 n         1 MOL     -0.308648
     70 C22        -1.3610   -5.0750    2.1890 c3        1 MOL      0.028345
     71 C23        -0.3150   -3.9580    1.9910 c         1 MOL      0.434772
     72 O13        -0.6800   -2.8420    1.6630 o         1 MOL     -0.490826
     73 C24        -1.1790   -6.1300    1.1320 c3        1 MOL      0.332955
     74 C25        -1.9380   -7.3960    1.3830 c3        1 MOL     -0.476360
     75 O14        -1.4160   -5.6890   -0.1630 oh        1 MOL     -0.690291
     76 H29        -2.9380   -3.8960    1.3730 hn        1 MOL      0.210887
     77 H30        -1.2290   -5.4950    3.1920 h1        1 MOL      0.088551
     78 H31        -0.1130   -6.3220    1.1150 h1        1 MOL      0.018493
     79 H32        -1.1180   -6.3580   -0.7820 ho        1 MOL      0.450287
     80 H33        -1.6430   -7.8370    2.3290 hc        1 MOL      0.120561
     81 H34        -3.0080   -7.2470    1.5450 hc        1 MOL      0.120561
     82 H35        -1.7770   -8.0010    0.4890 hc        1 MOL      0.120561
     83 N9          0.9950   -4.2540    2.1800 n         1 MOL     -0.348802
     84 C26         2.1120   -3.2550    2.0580 c3        1 MOL      0.035698
     85 C27         3.1320   -3.8710    1.0710 c         1 MOL      0.460515
     86 O15         3.6040   -5.0120    1.2680 o         1 MOL     -0.550847
     87 C28         2.8220   -3.0050    3.4540 c3        1 MOL     -0.014640
     88 C29         4.1790   -2.3500    3.4810 c3        1 MOL      0.226162
     89 C30         1.8080   -2.2010    4.2630 c3        1 MOL     -0.211288
     90 C31         4.8390   -2.4450    4.8720 c3        1 MOL     -0.216650
     91 H36         1.2670   -5.1980    2.4150 hn        1 MOL      0.228051
     92 H37         1.7330   -2.3170    1.6380 h1        1 MOL      0.077078
     93 H38         2.9370   -3.9870    3.9030 hc        1 MOL      0.033772
     94 H39         4.2010   -1.3200    3.1220 hc        1 MOL     -0.035342
     95 H40         4.8290   -3.0100    2.8960 hc        1 MOL     -0.035342
     96 H41         1.6390   -1.1820    3.9230 hc        1 MOL      0.056418
     97 H42         0.8420   -2.6860    4.3890 hc        1 MOL      0.056418
     98 H43         2.2000   -2.0120    5.2630 hc        1 MOL      0.056418
     99 H44         4.8230   -3.4690    5.2260 hc        1 MOL      0.041255
    100 H45         5.8360   -2.0490    4.7260 hc        1 MOL      0.041255
    101 H46         4.4500   -1.7610    5.6290 hc        1 MOL      0.041255
    102 N10         3.4660   -3.0840    0.0360 n         1 MOL     -0.330460
    103 C32         4.3500   -3.4870   -1.0620 c3        1 MOL      0.132783
    104 C33         5.4400   -2.4690   -1.4860 c         1 MOL      0.434538
    105 O16         6.0070   -2.6850   -2.6030 o         1 MOL     -0.524790
    106 C34         3.4240   -4.1460   -2.1300 c3        1 MOL     -0.012057
    107 C35         2.2300   -3.2710   -2.5630 c         1 MOL      0.639769
    108 O17         1.0930   -3.4390   -2.1150 o         1 MOL     -0.748311
    109 O18         2.3810   -2.2920   -3.3560 o         1 MOL     -0.748311
    110 H47         2.8500   -2.3120   -0.2120 hn        1 MOL      0.218683
    111 H48         4.9830   -4.3330   -0.8080 h1        1 MOL      0.026575
    112 H49         3.1240   -5.1310   -1.7840 hc        1 MOL      0.002600
    113 H50         4.0840   -4.2630   -2.9950 hc        1 MOL      0.002600
    114 N11         5.7010   -1.4040   -0.6800 n         1 MOL     -0.193457
    115 C36         6.7420   -0.4430   -1.0120 c3        1 MOL      0.050009
    116 C37         6.4560    0.7960   -0.2560 c         1 MOL      0.203676
    117 O19         6.1520    0.6750    0.9430 o         1 MOL     -0.389724
    118 C38         8.0280   -1.0860   -0.5890 c3        1 MOL     -0.458772
    119 C39         9.1860   -0.1460   -0.7400 ca        1 MOL      0.207803
    120 C40         9.9560   -0.1120   -1.9550 ca        1 MOL     -0.195309
    121 C41         9.5520    0.6930    0.3110 ca        1 MOL     -0.195309
    122 C42        11.0150    0.7690   -2.1010 ca        1 MOL     -0.116725
    123 C43        10.6240    1.5470    0.2100 ca        1 MOL     -0.116725
    124 C44        11.3700    1.6360   -1.0460 ca        1 MOL     -0.144393
    125 H51         5.2480   -1.3710    0.2260 hn        1 MOL      0.129174
    126 H52         6.6470   -0.3110   -2.0860 h1        1 MOL      0.083151
    127 H53         8.2700   -1.9770   -1.1800 hc        1 MOL      0.158819
    128 H54         7.9630   -1.3840    0.4580 hc        1 MOL      0.158819
    129 H55         9.6490   -0.7110   -2.7970 ha        1 MOL      0.132768
    130 H56         8.9320    0.7280    1.2010 ha        1 MOL      0.132768
    131 H57        11.4820    0.8120   -3.0760 ha        1 MOL      0.110673
    132 H58        10.8570    2.1780    1.0640 ha        1 MOL      0.110673
    133 H59        12.2210    2.2810   -1.2060 ha        1 MOL      0.106548
    134 N12         6.7350    2.0160   -0.8540 n         1 MOL      0.285058
    135 C45         6.6420    3.3250   -0.1600 c3        1 MOL     -0.091746
    136 C46         5.4880    3.6560    0.8390 c         1 MOL      0.340057
    137 O20         5.7620    4.5250    1.6910 o         1 MOL     -0.509565
    138 C47         6.7250    4.3390   -1.3050 c3        1 MOL     -0.064018
    139 C48         7.4600    3.6260   -2.4240 c3        1 MOL     -0.029985
    140 C49         7.0170    2.2070   -2.2170 c3        1 MOL     -0.003765
    141 H60         7.5950    3.3640    0.3720 h1        1 MOL      0.047187
    142 H61         5.7400    4.6140   -1.6610 hc        1 MOL      0.049504
    143 H62         7.2930    5.2530   -1.0960 hc        1 MOL      0.049504
    144 H63         7.2060    3.9960   -3.4160 hc        1 MOL      0.008490
    145 H64         8.5410    3.7130   -2.2750 hc        1 MOL      0.008490
    146 H65         6.1580    2.0190   -2.8740 h1        1 MOL      0.029161
    147 H66         7.8960    1.6520   -2.5400 h1        1 MOL      0.029161
    148 N13         4.4290    2.8150    0.9550 n         1 MOL     -0.119043
    149 C50         3.5820    2.6370    2.1520 c3        1 MOL     -0.184935
    150 C51         4.4210    2.8090    3.5200 c         1 MOL      0.394994
    151 O21         3.9540    3.3670    4.5330 o         1 MOL     -0.551300
    152 C52         2.8620    1.2400    2.0630 c3        1 MOL      0.061954
    153 C53         1.9680    1.0660    0.8960 c3        1 MOL     -0.055945
    154 C54         2.5400    0.4560   -0.4140 c         1 MOL      0.688687
    155 O22         2.0340   -0.5900   -0.8500 o         1 MOL     -0.666599
    156 O23         3.5250    1.0570   -0.9260 o         1 MOL     -0.666599
    157 H67         4.3440    2.0160    0.3520 hn        1 MOL      0.067270
    158 H68         2.8860    3.4750    2.1650 h1        1 MOL      0.134843
    159 H69         2.2090    1.2420    2.9280 hc        1 MOL      0.013227
    160 H70         3.6530    0.4930    2.2080 hc        1 MOL      0.013227
    161 H71         1.5870    2.0410    0.5860 hc        1 MOL      0.013471
    162 H72         1.1170    0.4530    1.1810 hc        1 MOL      0.013471
    163 N14         5.6280    2.3500    3.5050 n         1 MOL      0.033018
    164 C55         6.5090    2.3360    4.6750 c3        1 MOL     -0.270518
    165 H73         7.1860    1.4840    4.6100 h1        1 MOL      0.094167
    166 H74         7.0890    3.2590    4.7040 h1        1 MOL      0.094167
    167 H75         5.9090    2.2550    5.5820 h1        1 MOL      0.094167
    168 H76         5.9510    1.9050    2.6550 hn        1 MOL      0.104292
    169 Ca1         0.1540   -1.0270   -2.5080 Ca        1 MOL      1.726190
    170 O24        -0.0040   -1.4970   -5.1310 oh        1 MOL     -0.838569
    171 H77        -0.4600   -2.0410   -5.7670 ho        1 MOL      0.411776
    172 H78         0.7970   -1.2200   -5.5780 ho        1 MOL      0.411776
    173 O25         1.3220    1.1240   -3.6910 oh        1 MOL     -0.838569
    174 H79         0.5000    1.5090   -3.9890 ho        1 MOL      0.411776
    175 H80         1.9020    1.8810   -3.5750 ho        1 MOL      0.411776
    176 O26        -0.7340    1.1950   -1.2350 oh        1 MOL     -0.838569
    177 H81        -0.4520    2.0940   -1.4040 ho        1 MOL      0.411776
    178 H82        -1.6660    1.2800   -1.0480 ho        1 MOL      0.411776
    179 O27        -1.4000   -2.1900   -0.7830 oh        1 MOL     -0.838569
    180 H83        -0.9010   -2.4940   -0.0240 ho        1 MOL      0.411776
    181 H84        -2.1220   -2.8120   -0.8510 ho        1 MOL      0.411776
@<TRIPOS>BOND
     1    1    2 1   
     2    1    4 1   
     3    1    5 1   
     4    1    6 1   
     5    2    3 2   
     6    2    7 1   
     7    7    8 1   
     8    7   15 1   
     9    8    9 1   
    10    8   11 1   
    11    8   16 1   
    12    9   10 2   
    13    9   19 1   
    14   11   12 1   
    15   11   17 1   
    16   11   18 1   
    17   12   13 1   
    18   12   14 1   
    19   19   20 1   
    20   19   24 1   
    21   20   21 1   
    22   20   23 1   
    23   20   25 1   
    24   21   22 2   
    25   21   29 1   
    26   23   26 1   
    27   23   27 1   
    28   23   28 1   
    29   29   30 1   
    30   29   37 1   
    31   30   31 1   
    32   30   33 1   
    33   30   38 1   
    34   31   32 2   
    35   31   41 1   
    36   33   34 1   
    37   33   39 1   
    38   33   40 1   
    39   34   35 1   
    40   34   36 1   
    41   41   42 1   
    42   41   45 1   
    43   42   43 1   
    44   42   46 1   
    45   42   47 1   
    46   43   44 2   
    47   43   48 1   
    48   48   49 1   
    49   48   56 1   
    50   49   50 1   
    51   49   52 1   
    52   49   57 1   
    53   50   51 2   
    54   50   62 1   
    55   52   53 1   
    56   52   58 1   
    57   52   59 1   
    58   53   54 1   
    59   53   55 2   
    60   54   60 1   
    61   54   61 1   
    62   62   63 1   
    63   62   66 1   
    64   63   64 1   
    65   63   67 1   
    66   63   68 1   
    67   64   65 2   
    68   64   69 1   
    69   69   70 1   
    70   69   76 1   
    71   70   71 1   
    72   70   73 1   
    73   70   77 1   
    74   71   72 2   
    75   71   83 1   
    76   73   74 1   
    77   73   75 1   
    78   73   78 1   
    79   74   80 1   
    80   74   81 1   
    81   74   82 1   
    82   75   79 1   
    83   83   84 1   
    84   83   91 1   
    85   84   85 1   
    86   84   87 1   
    87   84   92 1   
    88   85   86 2   
    89   85  102 1   
    90   87   88 1   
    91   87   89 1   
    92   87   93 1   
    93   88   90 1   
    94   88   94 1   
    95   88   95 1   
    96   89   96 1   
    97   89   97 1   
    98   89   98 1   
    99   90   99 1   
   100   90  100 1   
   101   90  101 1   
   102  102  103 1   
   103  102  110 1   
   104  103  104 1   
   105  103  106 1   
   106  103  111 1   
   107  104  105 2   
   108  104  114 1   
   109  106  107 1   
   110  106  112 1   
   111  106  113 1   
   112  107  108 1   
   113  107  109 1   
   114  114  115 1   
   115  114  125 1   
   116  115  116 1   
   117  115  118 1   
   118  115  126 1   
   119  116  117 2   
   120  116  134 1   
   121  118  119 1   
   122  118  127 1   
   123  118  128 1   
   124  119  120 ar  
   125  119  121 ar  
   126  120  122 ar  
   127  120  129 1   
   128  121  123 ar  
   129  121  130 1   
   130  122  124 ar  
   131  122  131 1   
   132  123  124 ar  
   133  123  132 1   
   134  124  133 1   
   135  134  135 1   
   136  134  140 1   
   137  135  136 1   
   138  135  138 1   
   139  135  141 1   
   140  136  137 2   
   141  136  148 1   
   142  138  139 1   
   143  138  142 1   
   144  138  143 1   
   145  139  140 1   
   146  139  144 1   
   147  139  145 1   
   148  140  146 1   
   149  140  147 1   
   150  148  149 1   
   151  148  157 1   
   152  149  150 1   
   153  149  152 1   
   154  149  158 1   
   155  150  151 2   
   156  150  163 1   
   157  152  153 1   
   158  152  159 1   
   159  152  160 1   
   160  153  154 1   
   161  153  161 1   
   162  153  162 1   
   163  154  155 1   
   164  154  156 1   
   165  163  164 1   
   166  163  168 1   
   167  164  165 1   
   168  164  166 1   
   169  164  167 1   
   170  170  171 1   
   171  170  172 1   
   172  173  174 1   
   173  173  175 1   
   174  176  177 1   
   175  176  178 1   
   176  179  180 1   
   177  179  181 1   
@<TRIPOS>SUBSTRUCTURE
     1 MOL         1 TEMP              0 ****  ****    0 ROOT
