@<TRIPOS>MOLECULE
MOL
  201   193     1     0     0
SMALL
resp


@<TRIPOS>ATOM
      1 C1         -4.6840   -6.2450   -0.8500 c3        1 MOL     -0.390006
      2 C2         -5.2850   -5.0640   -1.5670 c         1 MOL      0.797318
      3 O1         -4.8270   -4.7270   -2.6220 o         1 MOL     -0.614442
      4 H1         -3.6060   -6.2550   -1.0100 hc        1 MOL      0.086090
      5 H2         -4.8920   -6.1670    0.2170 hc        1 MOL      0.086090
      6 H3         -5.1170   -7.1650   -1.2390 hc        1 MOL      0.086090
      7 N1         -6.3360   -4.6150   -0.9610 n         1 MOL     -0.562842
      8 C3         -7.1140   -3.4320   -1.3700 c3        1 MOL     -0.037229
      9 C4         -6.4040   -2.1000   -1.2390 c         1 MOL      0.429439
     10 O2         -5.5000   -1.9840   -0.3310 o         1 MOL     -0.545511
     11 C5         -8.5260   -3.5900   -0.8610 c3        1 MOL     -0.018738
     12 C6         -8.6200   -3.8370    0.6190 c         1 MOL      0.609801
     13 O3         -9.4470   -4.7140    1.0440 o         1 MOL     -0.711210
     14 O4         -7.9160   -3.1790    1.3850 o         1 MOL     -0.711210
     15 H4         -6.5330   -5.0110   -0.0590 hn        1 MOL      0.373497
     16 H5         -7.0600   -3.5590   -2.4490 h1        1 MOL      0.067845
     17 H6         -8.9820   -4.4530   -1.3560 hc        1 MOL      0.047685
     18 H7         -9.1430   -2.7730   -1.2300 hc        1 MOL      0.047685
     19 N2         -6.8060   -1.0870   -1.9680 n         1 MOL     -0.465312
     20 C7         -6.2260    0.2390   -1.9060 c3        1 MOL      0.498468
     21 C8         -7.1980    1.3040   -1.4140 c         1 MOL      0.191341
     22 O5         -7.1700    2.4610   -1.8810 o         1 MOL     -0.523087
     23 C9         -5.5820    0.5390   -3.3160 c3        1 MOL     -0.453638
     24 C10        -4.4960    1.6420   -3.3330 c3        1 MOL      0.255582
     25 C11        -4.1890    1.9660   -4.8150 c3        1 MOL     -0.033029
     26 C12        -3.2990    3.1680   -4.9460 c3        1 MOL     -0.274586
     27 N3         -1.9970    3.0350   -4.2940 n4        1 MOL     -0.222009
     28 H8         -7.5610   -1.2360   -2.6290 hn        1 MOL      0.295509
     29 H9         -5.4030    0.2570   -1.1900 h1        1 MOL      0.023529
     30 H10        -6.3790    0.8380   -4.0030 hc        1 MOL      0.112934
     31 H11        -5.1730   -0.3620   -3.7830 hc        1 MOL      0.112934
     32 H12        -3.6730    1.2260   -2.7460 hc        1 MOL     -0.033155
     33 H13        -4.8900    2.5140   -2.8110 hc        1 MOL     -0.033155
     34 H14        -5.0960    2.1780   -5.3870 hc        1 MOL      0.049329
     35 H15        -3.5310    1.2670   -5.3250 hc        1 MOL      0.049329
     36 H16        -3.8620    3.9800   -4.4850 hx        1 MOL      0.164042
     37 H17        -3.0720    3.3940   -5.9850 hx        1 MOL      0.164042
     38 H18        -2.1160    2.9360   -3.2930 hn        1 MOL      0.286434
     39 H19        -1.5050    2.1910   -4.5740 hn        1 MOL      0.286434
     40 H20        -1.2590    3.7030   -4.4600 hn        1 MOL      0.286434
     41 N4         -8.1070    0.9460   -0.5260 n         1 MOL     -0.156840
     42 C13        -9.2390    1.7580   -0.0800 c3        1 MOL      0.394550
     43 C14        -9.1420    2.1430    1.4200 c         1 MOL      0.399923
     44 O6         -9.1110    1.3200    2.3120 o         1 MOL     -0.556929
     45 C15       -10.4560    0.9830   -0.4580 c3        1 MOL     -0.446541
     46 C16       -10.3750   -0.4650    0.0380 c         1 MOL      0.770462
     47 O7        -11.4160   -1.1300   -0.1630 o         1 MOL     -0.670755
     48 O8         -9.4070   -0.9600    0.6550 o         1 MOL     -0.670755
     49 H21        -8.0630   -0.0200   -0.2310 hn        1 MOL      0.068257
     50 H22        -9.1980    2.6980   -0.6420 h1        1 MOL      0.022039
     51 H23       -10.4430    0.9570   -1.5430 hc        1 MOL      0.094483
     52 H24       -11.3970    1.4740   -0.1990 hc        1 MOL      0.094483
     53 N5         -9.3320    3.4310    1.7580 n         1 MOL     -0.428398
     54 C17        -9.1350    4.5920    0.9110 c3        1 MOL     -0.064987
     55 C18        -7.7160    4.7010    0.2660 c         1 MOL      0.456127
     56 O9         -7.5530    5.3650   -0.7960 o         1 MOL     -0.533321
     57 H25        -9.3970    3.6770    2.7380 hn        1 MOL      0.322167
     58 H26        -9.2880    5.5280    1.4470 h1        1 MOL      0.090169
     59 H27        -9.8140    4.6240    0.0570 h1        1 MOL      0.090169
     60 N6         -6.6220    4.2200    0.9030 n         1 MOL     -0.311606
     61 C19        -5.2670    4.1900    0.4380 c3        1 MOL      0.017845
     62 C20        -4.6240    2.7800    0.6210 c         1 MOL      0.451692
     63 O10        -5.1940    1.9240    1.3020 o         1 MOL     -0.486480
     64 C21        -4.4240    5.2970    1.0950 c3        1 MOL     -0.156359
     65 C22        -4.5630    5.3190    2.5870 c         1 MOL      0.711079
     66 O11        -3.4960    5.2020    3.2310 o         1 MOL     -0.712005
     67 O12        -5.6700    5.5370    3.2080 o         1 MOL     -0.712005
     68 H28        -6.8430    3.8280    1.8030 hn        1 MOL      0.229434
     69 H29        -5.2160    4.4770   -0.6090 h1        1 MOL      0.065075
     70 H30        -4.6630    6.3050    0.7490 hc        1 MOL      0.025533
     71 H31        -3.3900    5.0460    0.8700 hc        1 MOL      0.025533
     72 N7         -3.5590    2.4760   -0.0480 n         1 MOL     -0.126465
     73 C23        -2.8470    1.1950    0.1860 c3        1 MOL     -0.326983
     74 C24        -1.6250    0.9990   -0.7990 c         1 MOL      0.713742
     75 O13        -1.2670    1.8940   -1.5690 o         1 MOL     -0.582208
     76 H32        -3.0100    3.0360   -0.6750 hn        1 MOL      0.185037
     77 H33        -3.4580    0.3580   -0.1540 h1        1 MOL      0.148449
     78 H34        -2.5650    1.0810    1.2260 h1        1 MOL      0.148449
     79 N8         -0.9700   -0.2100   -0.8010 n         1 MOL     -0.593648
     80 C25        -0.3050   -0.7700   -1.9670 c3        1 MOL      0.001391
     81 C26         0.7170   -1.9450   -1.6030 c         1 MOL      0.545358
     82 O14         0.5010   -2.7220   -0.6660 o         1 MOL     -0.469821
     83 C27        -1.2910   -1.3020   -2.9990 c3        1 MOL      0.207382
     84 C28        -2.3700   -2.2260   -2.3630 c3        1 MOL     -0.574255
     85 O15        -1.9570   -0.4200   -3.7840 oh        1 MOL     -0.484744
     86 H35        -1.2270   -0.9430   -0.1660 hn        1 MOL      0.348590
     87 H36         0.1950    0.0410   -2.4990 h1        1 MOL      0.011147
     88 H37        -0.6950   -1.8630   -3.7140 h1        1 MOL      0.028702
     89 H38        -1.3050    0.0020   -4.3450 ho        1 MOL      0.333074
     90 H39        -2.9390   -2.7300   -3.1450 hc        1 MOL      0.179446
     91 H40        -2.0060   -2.9760   -1.6590 hc        1 MOL      0.179446
     92 H41        -2.9750   -1.6030   -1.6980 hc        1 MOL      0.179446
     93 N9          1.7470   -2.0680   -2.4730 n         1 MOL     -0.270199
     94 C29         2.9370   -2.7780   -2.1680 c3        1 MOL     -0.166158
     95 C30         3.9920   -1.9420   -1.3480 c         1 MOL      0.572117
     96 O16         4.7230   -2.5700   -0.5820 o         1 MOL     -0.499944
     97 C31         3.4690   -3.5630   -3.3580 c3        1 MOL      0.230231
     98 C32         2.4690   -4.0520   -4.4640 c3        1 MOL      0.015529
     99 C33         4.1010   -4.8840   -2.8160 c3        1 MOL     -0.323192
    100 C34         1.1570   -4.7850   -4.0630 c3        1 MOL     -0.283374
    101 H42         1.7720   -1.5040   -3.3170 hn        1 MOL      0.221361
    102 H43         2.6030   -3.6480   -1.6000 h1        1 MOL      0.116640
    103 H44         4.2150   -3.0150   -3.9370 hc        1 MOL     -0.051932
    104 H45         3.0620   -4.6600   -5.1430 hc        1 MOL     -0.002322
    105 H46         2.1520   -3.2100   -5.0900 hc        1 MOL     -0.002322
    106 H47         4.6830   -5.3590   -3.6140 hc        1 MOL      0.093834
    107 H48         4.8030   -4.6470   -2.0050 hc        1 MOL      0.093834
    108 H49         3.3520   -5.5510   -2.4060 hc        1 MOL      0.093834
    109 H50         1.4360   -5.7510   -3.6480 hc        1 MOL      0.085285
    110 H51         0.7320   -4.1040   -3.3280 hc        1 MOL      0.085285
    111 H52         0.5530   -4.7900   -4.9700 hc        1 MOL      0.085285
    112 N10         4.0390   -0.5940   -1.4950 n         1 MOL     -0.443109
    113 C35         4.9450    0.2470   -0.7170 c3        1 MOL      0.014770
    114 C36         5.7480    1.1720   -1.5500 c         1 MOL      0.629052
    115 O17         5.2690    1.6600   -2.6050 o         1 MOL     -0.541535
    116 C37         4.2230    0.9930    0.4120 c3        1 MOL      0.235513
    117 C38         3.0800    1.7970   -0.1410 c3        1 MOL     -0.220466
    118 O18         3.5560    0.1940    1.3980 oh        1 MOL     -0.568656
    119 H53         3.5400   -0.1000   -2.2200 hn        1 MOL      0.243511
    120 H54         5.6980   -0.4000   -0.2750 h1        1 MOL      0.051532
    121 H55         4.8910    1.6870    0.9250 h1        1 MOL      0.021500
    122 H56         4.1790   -0.0840    2.0710 ho        1 MOL      0.394859
    123 H57         2.7500    2.6490    0.4450 hc        1 MOL      0.069548
    124 H58         3.3700    2.2030   -1.1150 hc        1 MOL      0.069548
    125 H59         2.2190    1.1600   -0.3410 hc        1 MOL      0.069548
    126 N11         6.9890    1.4090   -1.0820 n         1 MOL     -0.532756
    127 C39         8.0070    2.2420   -1.7910 c3        1 MOL     -0.171404
    128 C40         9.4490    1.7640   -1.6040 c         1 MOL      0.786606
    129 O19        10.1450    1.7270   -2.6020 o         1 MOL     -0.566211
    130 C41         7.8790    3.7390   -1.4130 c3        1 MOL      0.345486
    131 C42         8.5200    4.7270   -2.3460 c3        1 MOL     -0.561860
    132 O20         8.4990    3.8600   -0.1260 oh        1 MOL     -0.666366
    133 H60         7.2650    0.9860   -0.2050 hn        1 MOL      0.289537
    134 H61         7.8490    2.0950   -2.8600 h1        1 MOL      0.143851
    135 H62         6.8630    4.0800   -1.2160 h1        1 MOL      0.044179
    136 H63         8.0630    4.5150    0.4230 ho        1 MOL      0.421679
    137 H64         8.1770    4.6040   -3.3650 hc        1 MOL      0.159512
    138 H65         8.2570    5.6930   -1.9290 hc        1 MOL      0.159512
    139 H66         9.5920    4.5440   -2.2240 hc        1 MOL      0.159512
    140 N12         9.9120    1.3330   -0.3760 n         1 MOL     -0.570863
    141 C43        11.3240    0.7950   -0.0860 c3        1 MOL     -0.050137
    142 C44        11.2870    0.1460    1.2700 c         1 MOL      0.405678
    143 O21        10.6840    0.7130    2.2010 o         1 MOL     -0.500678
    144 C45        12.3940    1.9250   -0.2530 c3        1 MOL     -0.120575
    145 C46        13.7470    1.5850    0.3900 c3        1 MOL      0.069743
    146 C47        15.0040    2.5620    0.2700 c3        1 MOL      0.002569
    147 C48        14.6500    3.9100    0.9190 c3        1 MOL      0.012466
    148 N13        15.7000    4.9320    0.7770 n4        1 MOL     -0.140308
    149 H67         9.3960    1.6160    0.4450 hn        1 MOL      0.334192
    150 H68        11.5550    0.0420   -0.8300 h1        1 MOL      0.097517
    151 H69        12.0610    2.7450    0.3850 hc        1 MOL      0.070664
    152 H70        12.3940    2.2760   -1.2830 hc        1 MOL      0.070664
    153 H71        14.0680    0.6360   -0.0380 hc        1 MOL     -0.006220
    154 H72        13.6290    1.2850    1.4260 hc        1 MOL     -0.006220
    155 H73        15.1080    2.6170   -0.8110 hc        1 MOL      0.031894
    156 H74        15.8580    2.1360    0.7880 hc        1 MOL      0.031894
    157 H75        14.4680    3.6880    1.9720 hx        1 MOL      0.074661
    158 H76        13.7470    4.3140    0.4710 hx        1 MOL      0.074661
    159 H77        15.5620    5.6810    1.4320 hn        1 MOL      0.217040
    160 H78        16.6640    4.6370    0.8460 hn        1 MOL      0.217040
    161 H79        15.5700    5.5070   -0.0360 hn        1 MOL      0.217040
    162 N14        11.8060   -1.0330    1.4480 n         1 MOL     -0.310546
    163 C49        11.4870   -1.8740    2.6070 c3        1 MOL      0.241033
    164 C50        10.0580   -2.4090    2.6670 c         1 MOL      0.411464
    165 O22         9.4460   -2.2270    3.7130 o         1 MOL     -0.525286
    166 C51        12.5550   -2.9280    2.9170 c3        1 MOL     -0.003293
    167 C52        13.9090   -2.2420    3.5030 c3        1 MOL     -0.311793
    168 C53        15.1560   -3.1670    3.4170 c         1 MOL      0.708952
    169 O23        15.3800   -3.8690    2.4130 o         1 MOL     -0.652451
    170 O24        16.0390   -3.1310    4.3240 o         1 MOL     -0.652451
    171 H80        12.4040   -1.4610    0.7540 hn        1 MOL      0.284979
    172 H81        11.5060   -1.1930    3.4610 h1        1 MOL      0.032430
    173 H82        12.9080   -3.3080    1.9640 hc        1 MOL      0.020683
    174 H83        12.2370   -3.7820    3.5180 hc        1 MOL      0.020683
    175 H84        13.7990   -1.9420    4.5500 hc        1 MOL      0.065067
    176 H85        14.1210   -1.3550    2.8990 hc        1 MOL      0.065067
    177 N15         9.4690   -2.9620    1.5940 n         1 MOL     -0.386639
    178 C54        10.1400   -3.6310    0.4410 c3        1 MOL     -0.002643
    179 H86        10.5300   -4.5970    0.7590 h1        1 MOL      0.037872
    180 H87         9.4200   -3.7770   -0.3650 h1        1 MOL      0.037872
    181 H88        10.9610   -3.0070    0.0860 h1        1 MOL      0.037872
    182 H89         8.4660   -3.0680    1.6620 hn        1 MOL      0.293652
    183 Ca1        -8.4370   -1.0410    3.0290 Ca        1 MOL      1.802153
    184 O25        -6.5370   -1.6820    4.8230 oh        1 MOL     -0.843174
    185 H90        -5.7780   -1.3400    5.2820 ho        1 MOL      0.410722
    186 H91        -6.8730   -2.3810    5.3940 ho        1 MOL      0.410722
    187 O26        -9.5890   -1.0080    5.4860 oh        1 MOL     -0.843174
    188 H92       -10.3570   -1.5480    5.6530 ho        1 MOL      0.410722
    189 H93        -9.0110   -1.1740    6.2350 ho        1 MOL      0.410722
    190 O27        -6.2580   -0.4420    1.6470 oh        1 MOL     -0.843174
    191 H94        -5.7430   -0.9150    0.9990 ho        1 MOL      0.410722
    192 H95        -5.9810    0.4680    1.5530 ho        1 MOL      0.410722
    193 O28        -9.2190   -3.6780    3.8640 oh        1 MOL     -0.843174
    194 H96        -9.9600   -4.0910    4.3050 ho        1 MOL      0.410722
    195 H97        -9.2370   -4.0410    2.9780 ho        1 MOL      0.410722
    196 O29        -7.5220    1.0760    4.5750 oh        1 MOL     -0.843174
    197 H98        -7.5740    2.0040    4.3380 ho        1 MOL      0.410722
    198 H99        -7.4810    1.0860    5.5350 ho        1 MOL      0.410722
    199 O30       -11.1510   -1.2260    3.0350 oh        1 MOL     -0.843174
    200 H100      -11.6710   -2.0270    2.9230 ho        1 MOL      0.410722
    201 H101      -11.7910   -0.5210    3.0650 ho        1 MOL      0.410722
@<TRIPOS>BOND
     1    1    2 1   
     2    1    4 1   
     3    1    5 1   
     4    1    6 1   
     5    2    3 2   
     6    2    7 1   
     7    7    8 1   
     8    7   15 1   
     9    8    9 1   
    10    8   11 1   
    11    8   16 1   
    12    9   10 2   
    13    9   19 1   
    14   11   12 1   
    15   11   17 1   
    16   11   18 1   
    17   12   13 1   
    18   12   14 1   
    19   19   20 1   
    20   19   28 1   
    21   20   21 1   
    22   20   23 1   
    23   20   29 1   
    24   21   22 2   
    25   21   41 1   
    26   23   24 1   
    27   23   30 1   
    28   23   31 1   
    29   24   25 1   
    30   24   32 1   
    31   24   33 1   
    32   25   26 1   
    33   25   34 1   
    34   25   35 1   
    35   26   27 1   
    36   26   36 1   
    37   26   37 1   
    38   27   38 1   
    39   27   39 1   
    40   27   40 1   
    41   41   42 1   
    42   41   49 1   
    43   42   43 1   
    44   42   45 1   
    45   42   50 1   
    46   43   44 2   
    47   43   53 1   
    48   45   46 1   
    49   45   51 1   
    50   45   52 1   
    51   46   47 1   
    52   46   48 1   
    53   53   54 1   
    54   53   57 1   
    55   54   55 1   
    56   54   58 1   
    57   54   59 1   
    58   55   56 2   
    59   55   60 1   
    60   60   61 1   
    61   60   68 1   
    62   61   62 1   
    63   61   64 1   
    64   61   69 1   
    65   62   63 2   
    66   62   72 1   
    67   64   65 1   
    68   64   70 1   
    69   64   71 1   
    70   65   66 1   
    71   65   67 1   
    72   72   73 1   
    73   72   76 1   
    74   73   74 1   
    75   73   77 1   
    76   73   78 1   
    77   74   75 2   
    78   74   79 1   
    79   79   80 1   
    80   79   86 1   
    81   80   81 1   
    82   80   83 1   
    83   80   87 1   
    84   81   82 2   
    85   81   93 1   
    86   83   84 1   
    87   83   85 1   
    88   83   88 1   
    89   84   90 1   
    90   84   91 1   
    91   84   92 1   
    92   85   89 1   
    93   93   94 1   
    94   93  101 1   
    95   94   95 1   
    96   94   97 1   
    97   94  102 1   
    98   95   96 2   
    99   95  112 1   
   100   97   98 1   
   101   97   99 1   
   102   97  103 1   
   103   98  100 1   
   104   98  104 1   
   105   98  105 1   
   106   99  106 1   
   107   99  107 1   
   108   99  108 1   
   109  100  109 1   
   110  100  110 1   
   111  100  111 1   
   112  112  113 1   
   113  112  119 1   
   114  113  114 1   
   115  113  116 1   
   116  113  120 1   
   117  114  115 2   
   118  114  126 1   
   119  116  117 1   
   120  116  118 1   
   121  116  121 1   
   122  117  123 1   
   123  117  124 1   
   124  117  125 1   
   125  118  122 1   
   126  126  127 1   
   127  126  133 1   
   128  127  128 1   
   129  127  130 1   
   130  127  134 1   
   131  128  129 2   
   132  128  140 1   
   133  130  131 1   
   134  130  132 1   
   135  130  135 1   
   136  131  137 1   
   137  131  138 1   
   138  131  139 1   
   139  132  136 1   
   140  140  141 1   
   141  140  149 1   
   142  141  142 1   
   143  141  144 1   
   144  141  150 1   
   145  142  143 2   
   146  142  162 1   
   147  144  145 1   
   148  144  151 1   
   149  144  152 1   
   150  145  146 1   
   151  145  153 1   
   152  145  154 1   
   153  146  147 1   
   154  146  155 1   
   155  146  156 1   
   156  147  148 1   
   157  147  157 1   
   158  147  158 1   
   159  148  159 1   
   160  148  160 1   
   161  148  161 1   
   162  162  163 1   
   163  162  171 1   
   164  163  164 1   
   165  163  166 1   
   166  163  172 1   
   167  164  165 2   
   168  164  177 1   
   169  166  167 1   
   170  166  173 1   
   171  166  174 1   
   172  167  168 1   
   173  167  175 1   
   174  167  176 1   
   175  168  169 1   
   176  168  170 1   
   177  177  178 1   
   178  177  182 1   
   179  178  179 1   
   180  178  180 1   
   181  178  181 1   
   182  184  185 1   
   183  184  186 1   
   184  187  188 1   
   185  187  189 1   
   186  190  191 1   
   187  190  192 1   
   188  193  194 1   
   189  193  195 1   
   190  196  197 1   
   191  196  198 1   
   192  199  200 1   
   193  199  201 1   
@<TRIPOS>SUBSTRUCTURE
     1 MOL         1 TEMP              0 ****  ****    0 ROOT
