@<TRIPOS>MOLECULE
MOL
  191   184     1     0     0
SMALL
resp


@<TRIPOS>ATOM
      1 C1          3.8910   -1.0610   -4.1200 c3        1 MOL     -0.432959
      2 C2          5.1210   -0.9280   -3.1610 c         1 MOL      0.673302
      3 O1          4.9770   -0.7690   -1.9590 o         1 MOL     -0.537203
      4 H1          3.0730   -0.4450   -3.7460 hc        1 MOL      0.111845
      5 H2          4.1700   -0.7260   -5.1190 hc        1 MOL      0.111845
      6 H3          3.5720   -2.1020   -4.1610 hc        1 MOL      0.111845
      7 N1          6.3280   -0.9270   -3.7210 n         1 MOL     -0.690301
      8 C3          7.6630   -0.7940   -3.0750 c3        1 MOL      0.578828
      9 C4          7.7280    0.3640   -2.0780 c         1 MOL      0.227463
     10 O2          8.1860    0.2430   -0.9360 o         1 MOL     -0.408947
     11 C5          8.1670   -2.1910   -2.6620 c3        1 MOL     -0.418098
     12 C6          9.6580   -2.3170   -2.4810 c         1 MOL      0.684223
     13 O3         10.1920   -3.4200   -2.1150 o         1 MOL     -0.652752
     14 O4         10.4430   -1.3450   -2.6780 o         1 MOL     -0.652752
     15 H4          6.4010   -1.2260   -4.6880 hn        1 MOL      0.326864
     16 H5          8.3430   -0.5490   -3.9040 h1        1 MOL     -0.058420
     17 H6          7.7910   -2.9910   -3.2970 hc        1 MOL      0.101878
     18 H7          7.7110   -2.3570   -1.6800 hc        1 MOL      0.101878
     19 N2          7.2120    1.5180   -2.4740 n         1 MOL     -0.273681
     20 C7          7.2600    2.6990   -1.6060 c3        1 MOL     -0.019480
     21 C8          6.4040    2.5840   -0.3340 c         1 MOL      0.496901
     22 O5          6.5680    3.4320    0.5880 o         1 MOL     -0.592050
     23 C9          6.6960    3.9150   -2.4630 c3        1 MOL      0.105094
     24 C10         7.1240    5.2240   -1.9510 c3        1 MOL      0.146036
     25 C11         6.8770    6.4040   -2.8940 c3        1 MOL     -0.044038
     26 C12         5.4400    6.5570   -3.3920 c3        1 MOL     -0.034786
     27 N3          4.4440    7.0000   -2.4020 n4        1 MOL     -0.239265
     28 H8          7.0440    1.5770   -3.4660 hn        1 MOL      0.181794
     29 H9          8.2800    2.8040   -1.2290 h1        1 MOL      0.128784
     30 H10         5.6130    3.8610   -2.4800 hc        1 MOL     -0.028202
     31 H11         7.1450    3.8400   -3.4500 hc        1 MOL     -0.028202
     32 H12         8.1870    5.1030   -1.7290 hc        1 MOL     -0.039166
     33 H13         6.5480    5.4030   -1.0400 hc        1 MOL     -0.039166
     34 H14         7.5100    6.4080   -3.7890 hc        1 MOL      0.034847
     35 H15         7.1750    7.2920   -2.3420 hc        1 MOL      0.034847
     36 H16         5.1360    5.6580   -3.9230 hx        1 MOL      0.079756
     37 H17         5.4970    7.3190   -4.1780 hx        1 MOL      0.079756
     38 H18         4.7000    7.9080   -2.0340 hn        1 MOL      0.269277
     39 H19         3.5320    7.1550   -2.8000 hn        1 MOL      0.269277
     40 H20         4.3840    6.3230   -1.6570 hn        1 MOL      0.269277
     41 N4          5.4010    1.6880   -0.3270 n         1 MOL     -0.150283
     42 C13         4.3890    1.7910    0.6280 c3        1 MOL      0.049519
     43 C14         4.6600    1.0240    1.9480 c         1 MOL      0.590055
     44 O6          5.2960   -0.0050    1.9670 o         1 MOL     -0.514908
     45 C15         3.0890    1.1640    0.0410 c3        1 MOL     -0.284586
     46 C16         1.9580    1.2370    1.0690 c         1 MOL      0.659144
     47 O7          1.7880    0.4350    2.0510 o         1 MOL     -0.682001
     48 O8          1.0850    2.1250    0.9440 o         1 MOL     -0.682001
     49 H21         5.3160    1.1270   -1.1640 hn        1 MOL      0.116463
     50 H22         4.2910    2.8340    0.9260 h1        1 MOL      0.007809
     51 H23         3.2190    0.1400   -0.2950 hc        1 MOL      0.102021
     52 H24         2.8730    1.7490   -0.8550 hc        1 MOL      0.102021
     53 N5          4.2470    1.5790    3.0860 n         1 MOL     -0.333208
     54 C17         4.8050    1.2460    4.4250 c3        1 MOL     -0.301918
     55 C18         4.4060   -0.1470    4.9430 c         1 MOL      0.660734
     56 O9          5.1450   -0.6140    5.7530 o         1 MOL     -0.583758
     57 H25         3.7010    2.4250    3.0500 hn        1 MOL      0.272648
     58 H26         4.5230    2.0180    5.1530 h1        1 MOL      0.133560
     59 H27         5.8920    1.2450    4.3720 h1        1 MOL      0.133560
     60 N6          3.3270   -0.7230    4.4760 n         1 MOL     -0.079569
     61 C19         3.0960   -2.1510    4.7630 c3        1 MOL     -0.185504
     62 C20         2.7610   -2.9610    3.5390 c         1 MOL      0.669503
     63 O10         2.8050   -4.1780    3.6140 o         1 MOL     -0.576201
     64 C21         2.0070   -2.1510    5.8850 c3        1 MOL     -0.137721
     65 C22         0.5960   -1.8240    5.4420 c         1 MOL      0.703060
     66 N7         -0.3570   -2.4490    6.0320 n         1 MOL     -0.748721
     67 O11         0.3640   -1.0530    4.5310 o         1 MOL     -0.692872
     68 H28         2.7300   -0.2070    3.8400 hn        1 MOL     -0.124967
     69 H29         4.0240   -2.5330    5.1930 h1        1 MOL      0.151896
     70 H30         2.2750   -1.5360    6.7490 hc        1 MOL      0.057950
     71 H31         1.8600   -3.1620    6.2600 hc        1 MOL      0.057950
     72 H32        -0.2630   -2.9050    6.9260 hn        1 MOL      0.365757
     73 H33        -1.2250   -2.2920    5.5370 hn        1 MOL      0.365757
     74 N8          2.5150   -2.3790    2.3380 n         1 MOL     -0.366777
     75 C23         2.1630   -3.1390    1.1450 c3        1 MOL     -0.044661
     76 C24         0.6530   -3.3680    1.1370 c         1 MOL      0.523099
     77 O12        -0.1740   -2.8730    1.9370 o         1 MOL     -0.454933
     78 H34         2.5610   -1.3670    2.2540 hn        1 MOL      0.270395
     79 H35         2.7860   -4.0140    1.0300 h1        1 MOL      0.104942
     80 H36         2.2150   -2.5100    0.2510 h1        1 MOL      0.104942
     81 N9          0.2090   -4.3600    0.3530 n         1 MOL     -0.573183
     82 C25        -1.1350   -4.7010   -0.0730 c3        1 MOL      0.522007
     83 C26        -1.9780   -3.5500   -0.6470 c         1 MOL      0.276738
     84 O13        -1.4570   -2.5230   -0.9710 o         1 MOL     -0.455038
     85 C27        -1.1060   -6.0320   -0.8350 c3        1 MOL     -0.203876
     86 C28        -0.1220   -6.2540   -1.9110 ca        1 MOL      0.056573
     87 C29        -0.2260   -5.6480   -3.1400 ca        1 MOL     -0.151846
     88 C30         0.9870   -7.0520   -1.5290 ca        1 MOL     -0.151846
     89 C31         0.8590   -5.7960   -4.0480 ca        1 MOL     -0.292197
     90 C32         2.1500   -7.1110   -2.4180 ca        1 MOL     -0.292197
     91 C33         2.0280   -6.4430   -3.6250 ca        1 MOL      0.414419
     92 O14         3.0760   -6.3430   -4.3990 oh        1 MOL     -0.514745
     93 H37         0.9490   -4.7400   -0.2200 hn        1 MOL      0.243505
     94 H38        -1.6410   -4.8590    0.8830 h1        1 MOL     -0.054082
     95 H39        -2.1260   -6.1890   -1.1970 hc        1 MOL      0.045610
     96 H40        -1.0480   -6.8180   -0.0740 hc        1 MOL      0.045610
     97 H41        -1.0360   -5.0080   -3.4480 ha        1 MOL      0.147767
     98 H42         1.0200   -7.6630   -0.6360 ha        1 MOL      0.147767
     99 H43         0.8380   -5.2060   -4.9580 ha        1 MOL      0.159632
    100 H44         3.0240   -7.6870   -2.1310 ha        1 MOL      0.159632
    101 H45         3.8760   -6.6660   -3.9980 ho        1 MOL      0.401279
    102 N10        -3.2600   -3.7780   -0.9410 n         1 MOL     -0.463412
    103 C34        -4.1370   -2.7770   -1.6070 c3        1 MOL      0.294137
    104 C35        -5.1780   -2.0870   -0.7210 c         1 MOL      0.407746
    105 O15        -5.2150   -0.8530   -0.6400 o         1 MOL     -0.510100
    106 C36        -4.9570   -3.4340   -2.7880 c3        1 MOL     -0.020142
    107 C37        -4.0580   -4.2970   -3.7990 c3        1 MOL      0.056803
    108 C38        -5.8680   -2.5180   -3.6000 c3        1 MOL     -0.368267
    109 C39        -3.1060   -3.3380   -4.5180 c3        1 MOL     -0.296962
    110 H46        -3.6070   -4.6770   -0.6110 hn        1 MOL      0.231546
    111 H47        -3.5340   -1.9650   -2.0320 h1        1 MOL      0.061101
    112 H48        -5.5840   -4.1950   -2.3180 hc        1 MOL     -0.042142
    113 H49        -4.5910   -4.7680   -4.6220 hc        1 MOL      0.020986
    114 H50        -3.4840   -5.0810   -3.3140 hc        1 MOL      0.020986
    115 H51        -6.5320   -1.8860   -3.0090 hc        1 MOL      0.105912
    116 H52        -5.1820   -1.8420   -4.1180 hc        1 MOL      0.105912
    117 H53        -6.4240   -3.0500   -4.3710 hc        1 MOL      0.105912
    118 H54        -3.6580   -2.7980   -5.2900 hc        1 MOL      0.090838
    119 H55        -2.6160   -2.6700   -3.8060 hc        1 MOL      0.090838
    120 H56        -2.4160   -3.9430   -5.1030 hc        1 MOL      0.090838
    121 N11        -6.0690   -2.8560   -0.0820 n         1 MOL     -0.345010
    122 C40        -6.9500   -2.3460    1.0190 c3        1 MOL     -0.024192
    123 C41        -7.9160   -1.3040    0.4990 c         1 MOL      0.285892
    124 O16        -8.4970   -0.7060    1.3770 o         1 MOL     -0.464294
    125 C42        -7.6980   -3.5160    1.6220 c3        1 MOL      0.148573
    126 O17        -6.7940   -4.5780    1.9800 oh        1 MOL     -0.613634
    127 H57        -5.9230   -3.8510   -0.1680 hn        1 MOL      0.273240
    128 H58        -6.3010   -2.0110    1.8230 h1        1 MOL      0.153688
    129 H59        -8.5190   -3.7770    0.9490 h1        1 MOL      0.039360
    130 H60        -8.2040   -3.1110    2.5080 h1        1 MOL      0.039360
    131 H61        -7.2920   -5.2350    2.4550 ho        1 MOL      0.422299
    132 N12        -8.1920   -1.1530   -0.8180 n         1 MOL     -0.057985
    133 C43        -8.9840   -0.0610   -1.3720 c3        1 MOL      0.121368
    134 C44        -8.5460    1.3100   -1.0240 c         1 MOL      0.462758
    135 O18        -9.2830    2.3390   -0.9930 o         1 MOL     -0.529597
    136 C45       -10.4700   -0.3520   -1.2790 c3        1 MOL     -0.261163
    137 H62        -8.0370   -1.9700   -1.3880 hn        1 MOL      0.157577
    138 H63        -8.7310   -0.0940   -2.4340 h1        1 MOL      0.056281
    139 H64       -10.6050   -1.3300   -1.7420 hc        1 MOL      0.075069
    140 H65       -10.9350   -0.3960   -0.3010 hc        1 MOL      0.075069
    141 H66       -11.0510    0.3600   -1.8650 hc        1 MOL      0.075069
    142 N13        -7.2480    1.4890   -0.6560 n         1 MOL     -0.371481
    143 C46        -6.4900    2.6490   -0.1110 c3        1 MOL      0.233481
    144 C47        -5.5620    3.4500   -1.0920 c         1 MOL      0.541993
    145 O19        -4.9970    2.9080   -2.0110 o         1 MOL     -0.488727
    146 C48        -5.7670    2.3340    1.2460 c3        1 MOL     -0.029425
    147 H67        -6.6220    0.7230   -0.8740 hn        1 MOL      0.114368
    148 H68        -7.2390    3.3880    0.1620 h1        1 MOL      0.016201
    149 H69        -5.9620    1.3050    1.5380 hc        1 MOL      0.006950
    150 H70        -4.6800    2.4670    1.2820 hc        1 MOL      0.006950
    151 H71        -6.1170    2.8920    2.1040 hc        1 MOL      0.006950
    152 N14        -5.5370    4.7450   -0.8640 n         1 MOL     -0.673808
    153 C49        -4.5280    5.5930   -1.5600 c3        1 MOL      0.146338
    154 C50        -4.7140    5.6160   -3.0850 c         1 MOL      0.366133
    155 O20        -3.7410    5.9730   -3.7860 o         1 MOL     -0.501611
    156 C51        -3.1210    5.4410   -1.0210 c3        1 MOL      0.277125
    157 C52        -3.1510    5.5170    0.5160 c3        1 MOL     -0.125254
    158 C53        -1.7000    5.6340    1.0310 c         1 MOL      0.687098
    159 O21        -1.4650    5.2310    2.1620 o         1 MOL     -0.685887
    160 O22        -0.8640    6.3850    0.4580 o         1 MOL     -0.685887
    161 H72        -6.0030    5.0980   -0.0380 hn        1 MOL      0.330653
    162 H73        -4.7070    6.6260   -1.2500 h1        1 MOL      0.028552
    163 H74        -2.5300    6.2260   -1.4780 hc        1 MOL     -0.053012
    164 H75        -2.6590    4.5040   -1.3700 hc        1 MOL     -0.053012
    165 H76        -3.6750    4.6540    0.9440 hc        1 MOL     -0.013643
    166 H77        -3.6270    6.4230    0.8960 hc        1 MOL     -0.013643
    167 N15        -5.8870    5.3180   -3.5870 n         1 MOL     -0.216631
    168 C54        -6.2360    5.0500   -4.9840 c3        1 MOL     -0.264570
    169 H78        -5.6060    4.2460   -5.3670 h1        1 MOL      0.118552
    170 H79        -7.2830    4.7520   -5.0480 h1        1 MOL      0.118552
    171 H80        -6.0760    5.9490   -5.5790 h1        1 MOL      0.118552
    172 H81        -6.6410    5.1570   -2.9260 hn        1 MOL      0.229911
    173 Ca1        -0.4240    1.0440    3.1610 Ca        1 MOL      1.833476
    174 O23         1.5910    1.6700    4.7250 oh        1 MOL     -0.836664
    175 H82         1.8460    1.3360    5.5860 ho        1 MOL      0.401384
    176 H83         1.8210    2.5980    4.7570 ho        1 MOL      0.401384
    177 O24        -1.9080    2.2740    5.1600 oh        1 MOL     -0.836664
    178 H84        -2.0920    1.8100    5.9760 ho        1 MOL      0.401384
    179 H85        -1.8430    3.1960    5.4170 ho        1 MOL      0.401384
    180 O25        -1.1400   -0.3090    0.9890 oh        1 MOL     -0.836664
    181 H86        -0.7650   -1.1950    0.9230 ho        1 MOL      0.401384
    182 H87        -1.8410   -0.2950    0.3340 ho        1 MOL      0.401384
    183 O26        -2.4220    2.5810    2.3800 oh        1 MOL     -0.836664
    184 H88        -3.3550    2.3990    2.3150 ho        1 MOL      0.401384
    185 H89        -2.3700    3.5220    2.5490 ho        1 MOL      0.401384
    186 O27         0.1930    3.6020    3.4190 oh        1 MOL     -0.836664
    187 H90        -0.4450    4.2230    3.0580 ho        1 MOL      0.401384
    188 H91         0.9600    4.1380    3.6360 ho        1 MOL      0.401384
    189 O28        -2.5870   -0.5390    3.4770 oh        1 MOL     -0.836664
    190 H92        -2.5890   -1.4740    3.2630 ho        1 MOL      0.401384
    191 H93        -3.5080   -0.2980    3.5410 ho        1 MOL      0.401384
@<TRIPOS>BOND
     1    1    2 1   
     2    1    4 1   
     3    1    5 1   
     4    1    6 1   
     5    2    3 2   
     6    2    7 1   
     7    7    8 1   
     8    7   15 1   
     9    8    9 1   
    10    8   11 1   
    11    8   16 1   
    12    9   10 2   
    13    9   19 1   
    14   11   12 1   
    15   11   17 1   
    16   11   18 1   
    17   12   13 1   
    18   12   14 1   
    19   19   20 1   
    20   19   28 1   
    21   20   21 1   
    22   20   23 1   
    23   20   29 1   
    24   21   22 2   
    25   21   41 1   
    26   23   24 1   
    27   23   30 1   
    28   23   31 1   
    29   24   25 1   
    30   24   32 1   
    31   24   33 1   
    32   25   26 1   
    33   25   34 1   
    34   25   35 1   
    35   26   27 1   
    36   26   36 1   
    37   26   37 1   
    38   27   38 1   
    39   27   39 1   
    40   27   40 1   
    41   41   42 1   
    42   41   49 1   
    43   42   43 1   
    44   42   45 1   
    45   42   50 1   
    46   43   44 2   
    47   43   53 1   
    48   45   46 1   
    49   45   51 1   
    50   45   52 1   
    51   46   47 1   
    52   46   48 1   
    53   53   54 1   
    54   53   57 1   
    55   54   55 1   
    56   54   58 1   
    57   54   59 1   
    58   55   56 2   
    59   55   60 1   
    60   60   61 1   
    61   60   68 1   
    62   61   62 1   
    63   61   64 1   
    64   61   69 1   
    65   62   63 2   
    66   62   74 1   
    67   64   65 1   
    68   64   70 1   
    69   64   71 1   
    70   65   66 1   
    71   65   67 2   
    72   66   72 1   
    73   66   73 1   
    74   74   75 1   
    75   74   78 1   
    76   75   76 1   
    77   75   79 1   
    78   75   80 1   
    79   76   77 2   
    80   76   81 1   
    81   81   82 1   
    82   81   93 1   
    83   82   83 1   
    84   82   85 1   
    85   82   94 1   
    86   83   84 2   
    87   83  102 1   
    88   85   86 1   
    89   85   95 1   
    90   85   96 1   
    91   86   87 ar  
    92   86   88 ar  
    93   87   89 ar  
    94   87   97 1   
    95   88   90 ar  
    96   88   98 1   
    97   89   91 ar  
    98   89   99 1   
    99   90   91 ar  
   100   90  100 1   
   101   91   92 1   
   102   92  101 1   
   103  102  103 1   
   104  102  110 1   
   105  103  104 1   
   106  103  106 1   
   107  103  111 1   
   108  104  105 2   
   109  104  121 1   
   110  106  107 1   
   111  106  108 1   
   112  106  112 1   
   113  107  109 1   
   114  107  113 1   
   115  107  114 1   
   116  108  115 1   
   117  108  116 1   
   118  108  117 1   
   119  109  118 1   
   120  109  119 1   
   121  109  120 1   
   122  121  122 1   
   123  121  127 1   
   124  122  123 1   
   125  122  125 1   
   126  122  128 1   
   127  123  124 2   
   128  123  132 1   
   129  125  126 1   
   130  125  129 1   
   131  125  130 1   
   132  126  131 1   
   133  132  133 1   
   134  132  137 1   
   135  133  134 1   
   136  133  136 1   
   137  133  138 1   
   138  134  135 2   
   139  134  142 1   
   140  136  139 1   
   141  136  140 1   
   142  136  141 1   
   143  142  143 1   
   144  142  147 1   
   145  143  144 1   
   146  143  146 1   
   147  143  148 1   
   148  144  145 2   
   149  144  152 1   
   150  146  149 1   
   151  146  150 1   
   152  146  151 1   
   153  152  153 1   
   154  152  161 1   
   155  153  154 1   
   156  153  156 1   
   157  153  162 1   
   158  154  155 2   
   159  154  167 1   
   160  156  157 1   
   161  156  163 1   
   162  156  164 1   
   163  157  158 1   
   164  157  165 1   
   165  157  166 1   
   166  158  159 1   
   167  158  160 1   
   168  167  168 1   
   169  167  172 1   
   170  168  169 1   
   171  168  170 1   
   172  168  171 1   
   173  174  175 1   
   174  174  176 1   
   175  177  178 1   
   176  177  179 1   
   177  180  181 1   
   178  180  182 1   
   179  183  184 1   
   180  183  185 1   
   181  186  187 1   
   182  186  188 1   
   183  189  190 1   
   184  189  191 1   
@<TRIPOS>SUBSTRUCTURE
     1 MOL         1 TEMP              0 ****  ****    0 ROOT
