@<TRIPOS>MOLECULE
MOL
  184   179     1     0     0
SMALL
resp


@<TRIPOS>ATOM
      1 C1          2.4210   -1.7140    4.0100 c3        1 MOL     -0.227048
      2 C2          3.1880   -0.7450    3.0630 c         1 MOL      0.489255
      3 O1          2.6630   -0.1870    2.0890 o         1 MOL     -0.546862
      4 H1          2.1140   -1.1770    4.9080 hc        1 MOL      0.061224
      5 H2          1.5400   -2.1020    3.4990 hc        1 MOL      0.061224
      6 H3          3.0730   -2.5420    4.2890 hc        1 MOL      0.061224
      7 N1          4.4940   -0.5390    3.2230 n         1 MOL     -0.313099
      8 C3          5.3100    0.4710    2.5200 c3        1 MOL     -0.036525
      9 C4          6.0570   -0.0750    1.2800 c         1 MOL      0.490827
     10 O2          6.2880    0.7050    0.3360 o         1 MOL     -0.554556
     11 C5          6.2280    1.2420    3.4430 c3        1 MOL     -0.128063
     12 C6          7.0490    0.5130    4.4900 c         1 MOL      0.684400
     13 O3          7.2060   -0.7390    4.3580 o         1 MOL     -0.712295
     14 O4          7.7400    1.1580    5.3110 o         1 MOL     -0.712295
     15 H4          4.9230   -0.8860    4.0660 hn        1 MOL      0.211334
     16 H5          4.6870    1.2850    2.1370 h1        1 MOL      0.100785
     17 H6          5.6250    1.9410    4.0310 hc        1 MOL      0.040897
     18 H7          6.9240    1.8390    2.8470 hc        1 MOL      0.040897
     19 N2          6.4070   -1.3600    1.3220 n         1 MOL     -0.252626
     20 C7          7.1840   -2.0360    0.2770 c3        1 MOL      0.342828
     21 C8          6.6350   -1.9060   -1.1790 c         1 MOL      0.347578
     22 O5          7.4630   -1.7530   -2.0530 o         1 MOL     -0.459547
     23 C9          8.7040   -1.8120    0.4130 c3        1 MOL     -0.497949
     24 H8          6.2260   -1.8980    2.1530 hn        1 MOL      0.169420
     25 H9          7.0260   -3.1050    0.4240 h1        1 MOL     -0.019353
     26 H10         9.0390   -0.8320    0.0740 hc        1 MOL      0.127712
     27 H11         8.9450   -1.9270    1.4720 hc        1 MOL      0.127712
     28 H12         9.2050   -2.4930   -0.2620 hc        1 MOL      0.127712
     29 N3          5.2640   -2.0230   -1.2150 n         1 MOL     -0.201494
     30 C10         4.4540   -1.8110   -2.4030 c3        1 MOL     -0.256251
     31 C11         4.6850   -0.4150   -3.0780 c         1 MOL      0.565927
     32 O6          4.5090   -0.3110   -4.3110 o         1 MOL     -0.539380
     33 C12         4.5280   -2.9180   -3.4260 c3        1 MOL     -0.074535
     34 C13         4.3380   -4.3120   -2.8040 c         1 MOL      0.725729
     35 O7          5.1860   -5.1610   -3.0360 o         1 MOL     -0.716034
     36 O8          3.2760   -4.4900   -2.2360 o         1 MOL     -0.716034
     37 H13         4.8330   -2.3480   -0.3640 hn        1 MOL      0.133286
     38 H14         3.4350   -1.8620   -2.0440 h1        1 MOL      0.146054
     39 H15         5.4810   -2.7970   -3.9500 hc        1 MOL      0.025685
     40 H16         3.6930   -2.8640   -4.1290 hc        1 MOL      0.025685
     41 N4          5.0670    0.6000   -2.2930 n         1 MOL     -0.139184
     42 C14         5.3190    1.9750   -2.7650 c3        1 MOL     -0.183447
     43 C15         4.1540    2.8740   -3.3070 c         1 MOL      0.585795
     44 O9          4.4090    3.8560   -3.9540 o         1 MOL     -0.562466
     45 H17         5.1320    0.5610   -1.2840 hn        1 MOL      0.169232
     46 H18         6.0830    1.9060   -3.5480 h1        1 MOL      0.087416
     47 H19         5.7560    2.5760   -1.9640 h1        1 MOL      0.087416
     48 N5          2.9170    2.5180   -3.0310 n         1 MOL     -0.275383
     49 C16         1.7450    3.3140   -3.4900 c3        1 MOL      0.090639
     50 C17         1.5170    4.6000   -2.8030 c         1 MOL      0.378583
     51 O10         2.1800    4.9290   -1.8120 o         1 MOL     -0.490707
     52 C18         0.5400    2.3700   -3.2970 c3        1 MOL     -0.247793
     53 C19         0.4370    1.2320   -4.3850 c         1 MOL      0.592038
     54 N6          0.6290    0.0200   -4.0000 n         1 MOL     -0.694008
     55 O11         0.3930    1.4590   -5.5900 o         1 MOL     -0.601482
     56 H20         2.8580    1.5870   -2.6640 hn        1 MOL      0.153509
     57 H21         1.7910    3.5880   -4.5450 h1        1 MOL      0.050035
     58 H22        -0.4140    2.8850   -3.3520 hc        1 MOL      0.095932
     59 H23         0.5500    1.8690   -2.3290 hc        1 MOL      0.095932
     60 H24         0.7800   -0.2180   -3.0320 hn        1 MOL      0.351265
     61 H25         0.6570   -0.6690   -4.7470 hn        1 MOL      0.351265
     62 N7          0.6060    5.4060   -3.3200 n         1 MOL     -0.184643
     63 C20         0.2050    6.6750   -2.6700 c3        1 MOL     -0.390989
     64 C21        -0.7270    6.4960   -1.4440 c         1 MOL      0.583348
     65 O12        -1.6770    5.7290   -1.5590 o         1 MOL     -0.519838
     66 H26         0.2350    5.1400   -4.2240 hn        1 MOL      0.234506
     67 H27        -0.4290    7.3260   -3.2660 h1        1 MOL      0.156283
     68 H28         1.1200    7.2480   -2.5100 h1        1 MOL      0.156283
     69 N8         -0.5470    7.1890   -0.3670 n         1 MOL     -0.319569
     70 C22        -1.6160    7.4440    0.6640 c3        1 MOL     -0.394117
     71 C23        -1.8330    6.1880    1.5430 c         1 MOL      0.402795
     72 O13        -2.9050    5.8390    2.0720 o         1 MOL     -0.532301
     73 C24        -1.3700    8.7350    1.4840 c3        1 MOL      0.470609
     74 C25         0.0280    8.7530    2.1560 c3        1 MOL     -0.330912
     75 O14        -1.4140    9.8120    0.6520 oh        1 MOL     -0.638643
     76 H29         0.2880    7.7460   -0.2710 hn        1 MOL      0.255818
     77 H30        -2.4740    7.5950    0.0010 h1        1 MOL      0.191902
     78 H31        -2.1950    8.9250    2.1760 h1        1 MOL      0.021437
     79 H32        -1.9630    9.6770   -0.1260 ho        1 MOL      0.391808
     80 H33         0.1090    8.0780    3.0090 hc        1 MOL      0.093239
     81 H34         0.8350    8.4650    1.4770 hc        1 MOL      0.093239
     82 H35         0.1880    9.7500    2.5730 hc        1 MOL      0.093239
     83 N9         -0.8500    5.2470    1.5370 n         1 MOL      0.007013
     84 C26        -0.8420    3.8960    2.0510 c3        1 MOL     -0.137615
     85 C27        -0.7980    2.8350    0.9240 c         1 MOL      0.530540
     86 O15        -0.0620    2.9680   -0.0640 o         1 MOL     -0.476942
     87 C28         0.2940    3.7370    3.1020 c3        1 MOL      0.160817
     88 C29         1.6880    3.6660    2.5040 c3        1 MOL      0.186225
     89 C30         0.1700    4.7360    4.3020 c3        1 MOL     -0.421711
     90 C31         2.8510    3.2930    3.4280 c3        1 MOL     -0.197598
     91 H36        -0.0350    5.5020    1.0040 hn        1 MOL      0.138794
     92 H37        -1.7880    3.7620    2.5760 h1        1 MOL      0.070551
     93 H38         0.1450    2.7450    3.5220 hc        1 MOL     -0.010154
     94 H39         1.8920    4.6360    2.0330 hc        1 MOL     -0.015718
     95 H40         1.7550    2.9380    1.6990 hc        1 MOL     -0.015718
     96 H41        -0.8150    4.5810    4.7420 hc        1 MOL      0.091149
     97 H42         0.9730    4.4690    4.9920 hc        1 MOL      0.091149
     98 H43         0.2590    5.7660    3.9520 hc        1 MOL      0.091149
     99 H44         3.0830    4.0890    4.1360 hc        1 MOL      0.039056
    100 H45         2.7730    2.3870    4.0150 hc        1 MOL      0.039056
    101 H46         3.6890    3.1840    2.7360 hc        1 MOL      0.039056
    102 N10        -1.5460    1.7440    1.0980 n         1 MOL     -0.503412
    103 C32        -1.6160    0.6000    0.1190 c3        1 MOL      0.050497
    104 C33        -3.0300   -0.0040   -0.0380 c         1 MOL      0.588965
    105 O16        -3.2720   -1.1640    0.3360 o         1 MOL     -0.441091
    106 C34        -0.5380   -0.4440    0.5630 c3        1 MOL     -0.378390
    107 C35        -0.1870   -1.5360   -0.4470 c         1 MOL      0.871353
    108 O17         0.0250   -2.6850   -0.0100 o         1 MOL     -0.741232
    109 O18        -0.0370   -1.2510   -1.6500 o         1 MOL     -0.741232
    110 H47        -1.9760    1.6260    2.0050 hn        1 MOL      0.313302
    111 H48        -1.2790    1.0020   -0.8370 h1        1 MOL      0.091045
    112 H49        -0.7330   -0.9290    1.5200 hc        1 MOL      0.129408
    113 H50         0.3520    0.1510    0.7520 hc        1 MOL      0.129408
    114 N11        -4.0760    0.7570   -0.4100 n         1 MOL     -0.670349
    115 C36        -5.4660    0.2770   -0.6750 c3        1 MOL      0.521847
    116 C37        -6.0210   -0.7590    0.3190 c         1 MOL      0.270864
    117 O19        -5.9860   -0.4900    1.5150 o         1 MOL     -0.529034
    118 C38        -6.4640    1.4220   -0.7520 c3        1 MOL     -0.310571
    119 C39        -7.8510    1.0880   -1.4080 ca        1 MOL      0.152882
    120 C40        -8.0370    0.9220   -2.7890 ca        1 MOL     -0.186199
    121 C41        -8.8840    0.6720   -0.5910 ca        1 MOL     -0.186199
    122 C42        -9.2730    0.6710   -3.3620 ca        1 MOL     -0.107290
    123 C43       -10.1500    0.3550   -1.1740 ca        1 MOL     -0.107290
    124 C44       -10.3300    0.3480   -2.5350 ca        1 MOL     -0.104921
    125 H51        -3.8640    1.7480   -0.3900 hn        1 MOL      0.329451
    126 H52        -5.4350   -0.1730   -1.6720 h1        1 MOL     -0.053596
    127 H53        -5.9980    2.1630   -1.4030 hc        1 MOL      0.092758
    128 H54        -6.4050    1.8560    0.2420 hc        1 MOL      0.092758
    129 H55        -7.2040    1.1790   -3.4240 ha        1 MOL      0.122359
    130 H56        -8.7990    0.5210    0.4810 ha        1 MOL      0.122359
    131 H57        -9.3750    0.5550   -4.4320 ha        1 MOL      0.110158
    132 H58       -10.9370   -0.0920   -0.6000 ha        1 MOL      0.110158
    133 H59       -11.2700   -0.0460   -2.8970 ha        1 MOL      0.098682
    134 N12        -6.4980   -1.9380   -0.1780 n         1 MOL      0.082356
    135 C45        -7.0020   -2.9600    0.6390 c3        1 MOL      0.043119
    136 C46        -6.1110   -3.5900    1.6400 c         1 MOL      0.261317
    137 O20        -6.5640   -4.3730    2.4770 o         1 MOL     -0.546838
    138 C47        -7.6470   -4.0090   -0.2670 c3        1 MOL     -0.079107
    139 C48        -6.9600   -3.7660   -1.6280 c3        1 MOL     -0.074966
    140 C49        -6.6570   -2.2910   -1.5690 c3        1 MOL     -0.147704
    141 H60        -7.8430   -2.4970    1.1480 h1        1 MOL      0.056438
    142 H61        -7.5160   -5.0340    0.0490 hc        1 MOL      0.046106
    143 H62        -8.7130   -3.7640   -0.3040 hc        1 MOL      0.046106
    144 H63        -6.0140   -4.3040   -1.6090 hc        1 MOL      0.057614
    145 H64        -7.5220   -3.9680   -2.5490 hc        1 MOL      0.057614
    146 H65        -5.7160   -2.0690   -2.0750 h1        1 MOL      0.068338
    147 H66        -7.4380   -1.6570   -1.9920 h1        1 MOL      0.068338
    148 N13        -4.8110   -3.3220    1.6230 n         1 MOL      0.147316
    149 C50        -3.8690   -3.7140    2.7030 c3        1 MOL     -0.209996
    150 C51        -3.5730   -2.5840    3.6910 c         1 MOL      0.505637
    151 O21        -3.0970   -2.8940    4.7490 o         1 MOL     -0.563694
    152 C52        -2.5660   -4.2620    2.0360 c3        1 MOL      0.212051
    153 C53        -2.8720   -5.4740    1.2000 c3        1 MOL     -0.393252
    154 C54        -1.5610   -5.8130    0.4570 c         1 MOL      0.758584
    155 O22        -1.4650   -5.6360   -0.8110 o         1 MOL     -0.752967
    156 O23        -0.5810   -6.2840    1.0400 o         1 MOL     -0.752967
    157 H67        -4.5590   -2.5650    1.0130 hn        1 MOL     -0.059043
    158 H68        -4.2550   -4.5650    3.2610 h1        1 MOL      0.129959
    159 H69        -1.8530   -4.5230    2.8120 hc        1 MOL     -0.021522
    160 H70        -2.0910   -3.4310    1.5150 hc        1 MOL     -0.021522
    161 H71        -3.6500   -5.2940    0.4580 hc        1 MOL      0.092220
    162 H72        -3.1220   -6.2980    1.8580 hc        1 MOL      0.092220
    163 N14        -3.9660   -1.3580    3.4270 n         1 MOL     -0.230427
    164 C55        -4.0510   -0.3570    4.4930 c3        1 MOL     -0.202982
    165 H73        -3.3740   -0.6320    5.3020 h1        1 MOL      0.091794
    166 H74        -3.7680    0.6190    4.0980 h1        1 MOL      0.091794
    167 H75        -5.0720   -0.3160    4.8720 h1        1 MOL      0.091794
    168 H76        -4.3150   -1.1610    2.5060 hn        1 MOL      0.244574
    169 Ca1         1.1720   -4.9270   -0.5670 Ca        1 MOL      1.787106
    170 O24         0.3130   -3.8150   -2.7370 oh        1 MOL     -0.850326
    171 H77         0.2090   -2.8830   -2.5290 ho        1 MOL      0.405814
    172 H78         0.1610   -3.8670   -3.6800 ho        1 MOL      0.405814
    173 O25         1.0910   -7.3840   -1.8020 oh        1 MOL     -0.850326
    174 H79         1.3980   -8.0520   -1.1860 ho        1 MOL      0.405814
    175 H80         0.7060   -7.8850   -2.5270 ho        1 MOL      0.405814
    176 O26         1.5530   -4.7430    2.2130 oh        1 MOL     -0.850326
    177 H81         2.4050   -4.7870    2.6430 ho        1 MOL      0.405814
    178 H82         0.9100   -4.8890    2.9140 ho        1 MOL      0.405814
    179 O27         3.3990   -6.2710   -0.2350 oh        1 MOL     -0.850326
    180 H83         3.7810   -5.6720   -0.8740 ho        1 MOL      0.405814
    181 H84         4.1530   -6.7140    0.1460 ho        1 MOL      0.405814
    182 O28         2.7650   -2.9060    0.4100 oh        1 MOL     -0.850326
    183 H85         1.9430   -2.5380    0.7270 ho        1 MOL      0.405814
    184 H86         3.2530   -3.1200    1.2030 ho        1 MOL      0.405814
@<TRIPOS>BOND
     1    1    2 1   
     2    1    4 1   
     3    1    5 1   
     4    1    6 1   
     5    2    3 2   
     6    2    7 1   
     7    7    8 1   
     8    7   15 1   
     9    8    9 1   
    10    8   11 1   
    11    8   16 1   
    12    9   10 2   
    13    9   19 1   
    14   11   12 1   
    15   11   17 1   
    16   11   18 1   
    17   12   13 1   
    18   12   14 1   
    19   19   20 1   
    20   19   24 1   
    21   20   21 1   
    22   20   23 1   
    23   20   25 1   
    24   21   22 2   
    25   21   29 1   
    26   23   26 1   
    27   23   27 1   
    28   23   28 1   
    29   29   30 1   
    30   29   37 1   
    31   30   31 1   
    32   30   33 1   
    33   30   38 1   
    34   31   32 2   
    35   31   41 1   
    36   33   34 1   
    37   33   39 1   
    38   33   40 1   
    39   34   35 1   
    40   34   36 1   
    41   41   42 1   
    42   41   45 1   
    43   42   43 1   
    44   42   46 1   
    45   42   47 1   
    46   43   44 2   
    47   43   48 1   
    48   48   49 1   
    49   48   56 1   
    50   49   50 1   
    51   49   52 1   
    52   49   57 1   
    53   50   51 2   
    54   50   62 1   
    55   52   53 1   
    56   52   58 1   
    57   52   59 1   
    58   53   54 1   
    59   53   55 2   
    60   54   60 1   
    61   54   61 1   
    62   62   63 1   
    63   62   66 1   
    64   63   64 1   
    65   63   67 1   
    66   63   68 1   
    67   64   65 2   
    68   64   69 1   
    69   69   70 1   
    70   69   76 1   
    71   70   71 1   
    72   70   73 1   
    73   70   77 1   
    74   71   72 2   
    75   71   83 1   
    76   73   74 1   
    77   73   75 1   
    78   73   78 1   
    79   74   80 1   
    80   74   81 1   
    81   74   82 1   
    82   75   79 1   
    83   83   84 1   
    84   83   91 1   
    85   84   85 1   
    86   84   87 1   
    87   84   92 1   
    88   85   86 2   
    89   85  102 1   
    90   87   88 1   
    91   87   89 1   
    92   87   93 1   
    93   88   90 1   
    94   88   94 1   
    95   88   95 1   
    96   89   96 1   
    97   89   97 1   
    98   89   98 1   
    99   90   99 1   
   100   90  100 1   
   101   90  101 1   
   102  102  103 1   
   103  102  110 1   
   104  103  104 1   
   105  103  106 1   
   106  103  111 1   
   107  104  105 2   
   108  104  114 1   
   109  106  107 1   
   110  106  112 1   
   111  106  113 1   
   112  107  108 1   
   113  107  109 1   
   114  114  115 1   
   115  114  125 1   
   116  115  116 1   
   117  115  118 1   
   118  115  126 1   
   119  116  117 2   
   120  116  134 1   
   121  118  119 1   
   122  118  127 1   
   123  118  128 1   
   124  119  120 ar  
   125  119  121 ar  
   126  120  122 ar  
   127  120  129 1   
   128  121  123 ar  
   129  121  130 1   
   130  122  124 ar  
   131  122  131 1   
   132  123  124 ar  
   133  123  132 1   
   134  124  133 1   
   135  134  135 1   
   136  134  140 1   
   137  135  136 1   
   138  135  138 1   
   139  135  141 1   
   140  136  137 2   
   141  136  148 1   
   142  138  139 1   
   143  138  142 1   
   144  138  143 1   
   145  139  140 1   
   146  139  144 1   
   147  139  145 1   
   148  140  146 1   
   149  140  147 1   
   150  148  149 1   
   151  148  157 1   
   152  149  150 1   
   153  149  152 1   
   154  149  158 1   
   155  150  151 2   
   156  150  163 1   
   157  152  153 1   
   158  152  159 1   
   159  152  160 1   
   160  153  154 1   
   161  153  161 1   
   162  153  162 1   
   163  154  155 1   
   164  154  156 1   
   165  163  164 1   
   166  163  168 1   
   167  164  165 1   
   168  164  166 1   
   169  164  167 1   
   170  170  171 1   
   171  170  172 1   
   172  173  174 1   
   173  173  175 1   
   174  176  177 1   
   175  176  178 1   
   176  179  180 1   
   177  179  181 1   
   178  182  183 1   
   179  182  184 1   
@<TRIPOS>SUBSTRUCTURE
     1 MOL         1 TEMP              0 ****  ****    0 ROOT
