@<TRIPOS>MOLECULE
MOL
  189   185     1     0     0
SMALL
resp


@<TRIPOS>ATOM
      1 C1          4.2190    4.2960   -3.5700 c3        1 MOL     -0.256680
      2 C2          4.8950    3.5380   -2.4020 c         1 MOL      0.773861
      3 O1          4.3090    3.2530   -1.3260 o         1 MOL     -0.709032
      4 H1          4.4750    5.3540   -3.5130 hc        1 MOL      0.056143
      5 H2          4.5690    3.8890   -4.5190 hc        1 MOL      0.056143
      6 H3          3.1370    4.1800   -3.5020 hc        1 MOL      0.056143
      7 N1          6.1030    3.1280   -2.6660 n         1 MOL     -0.636525
      8 C3          6.9560    2.1380   -2.0460 c3        1 MOL      0.249338
      9 C4          6.1300    0.9020   -1.6670 c         1 MOL      0.225733
     10 O2          5.7450    0.7410   -0.5090 o         1 MOL     -0.056634
     11 C5          7.9570    2.6960   -1.0230 c3        1 MOL     -0.164260
     12 C6          7.4250    3.3260    0.2720 c         1 MOL      0.682644
     13 O3          6.2270    3.3460    0.6690 o         1 MOL     -0.709155
     14 O4          8.2690    3.8770    1.0390 o         1 MOL     -0.709155
     15 H4          6.5180    3.4260   -3.5370 hn        1 MOL      0.311419
     16 H5          7.5970    1.8830   -2.8900 h1        1 MOL     -0.005882
     17 H6          8.5420    3.4720   -1.5090 hc        1 MOL      0.027086
     18 H7          8.4950    1.8030   -0.6860 hc        1 MOL      0.027086
     19 N2          5.7910    0.1340   -2.7130 n         1 MOL     -0.442014
     20 C7          5.0640   -1.1510   -2.8380 c3        1 MOL      0.045228
     21 C8          5.7550   -2.3020   -2.0940 c         1 MOL      0.385328
     22 O5          5.7540   -3.4310   -2.4970 o         1 MOL     -0.573007
     23 C9          3.5760   -1.0190   -2.4850 c3        1 MOL      0.326410
     24 C10         2.8140   -2.4070   -2.3740 c3        1 MOL      0.151862
     25 C11         2.6980    0.0120   -3.2190 c3        1 MOL     -0.365960
     26 C12         2.5620   -3.0930   -3.7540 c3        1 MOL     -0.635593
     27 H8          6.1900    0.5030   -3.5650 hn        1 MOL      0.274327
     28 H9          5.1690   -1.3860   -3.8920 h1        1 MOL      0.054950
     29 H10         3.5120   -0.6980   -1.4450 hc        1 MOL     -0.198630
     30 H11         1.8200   -2.2840   -1.9560 hc        1 MOL      0.060552
     31 H12         3.2060   -3.1570   -1.6830 hc        1 MOL      0.060552
     32 H13         2.7330   -0.2470   -4.2740 hc        1 MOL      0.082897
     33 H14         1.7040   -0.1720   -2.7950 hc        1 MOL      0.082897
     34 H15         3.0330    1.0260   -2.9690 hc        1 MOL      0.082897
     35 H16         2.4630   -4.1330   -3.4620 hc        1 MOL      0.137922
     36 H17         1.5890   -2.7410   -4.0670 hc        1 MOL      0.137922
     37 H18         3.4650   -2.9440   -4.3580 hc        1 MOL      0.137922
     38 N3          6.4220   -2.0260   -1.0060 n         1 MOL     -0.026723
     39 C13         7.4630   -2.8890   -0.3810 c3        1 MOL      0.120242
     40 C14         7.0020   -4.2320    0.1520 c         1 MOL      0.567431
     41 O6          7.8140   -5.1960    0.0570 o         1 MOL     -0.629326
     42 C15         8.0650   -2.0740    0.8010 c3        1 MOL     -0.338321
     43 C16         8.8290   -0.8190    0.4140 c         1 MOL      0.763619
     44 O7          9.6490   -0.8170   -0.5160 o         1 MOL     -0.691123
     45 O8          8.6440    0.1880    1.1320 o         1 MOL     -0.691123
     46 H19         6.3170   -1.0930   -0.6220 hn        1 MOL     -0.046570
     47 H20         8.3130   -2.9670   -1.0590 h1        1 MOL      0.011963
     48 H21         8.6320   -2.7030    1.5000 hc        1 MOL      0.100662
     49 H22         7.1940   -1.7800    1.3880 hc        1 MOL      0.100662
     50 N4          5.8120   -4.5240    0.5120 n         1 MOL     -0.532338
     51 C17         4.7400   -3.7030    1.0840 c3        1 MOL      0.218792
     52 C18         5.0050   -3.3060    2.5950 c         1 MOL      0.373382
     53 O9          6.0330   -3.6200    3.1810 o         1 MOL     -0.541012
     54 H23         5.6500   -5.5080    0.7030 hn        1 MOL      0.298855
     55 H24         3.9000   -4.4020    1.0870 h1        1 MOL      0.018748
     56 H25         4.5120   -2.8360    0.4780 h1        1 MOL      0.018748
     57 N5          4.1750   -2.5450    3.1870 n         1 MOL     -0.267708
     58 C19         2.7930   -2.1440    2.8480 c3        1 MOL      0.034131
     59 C20         2.6260   -1.3470    1.5380 c         1 MOL      0.016394
     60 O10         3.6030   -0.7000    1.1080 o         1 MOL     -0.554670
     61 C21         2.3370   -1.1960    4.0060 c3        1 MOL     -0.326063
     62 C22         3.3120   -0.0220    4.0720 c         1 MOL      0.809560
     63 O11         4.2390   -0.0540    4.9250 o         1 MOL     -0.689350
     64 O12         3.0950    0.9440    3.3270 o         1 MOL     -0.689350
     65 H26         4.5180   -2.3240    4.1050 hn        1 MOL      0.264980
     66 H27         2.1110   -2.9810    2.6650 h1        1 MOL      0.069426
     67 H28         2.3430   -1.6520    4.9900 hc        1 MOL      0.079477
     68 H29         1.3880   -0.7100    3.7840 hc        1 MOL      0.079477
     69 N6          1.4230   -1.1460    0.9970 n         1 MOL      0.034806
     70 C23         0.1440   -1.6920    1.4460 c3        1 MOL      0.020890
     71 C24        -0.1400   -3.0570    0.8480 c         1 MOL      0.386374
     72 O13         0.7160   -3.8440    0.4390 o         1 MOL     -0.510052
     73 H30         1.3730   -0.4830    0.2480 hn        1 MOL      0.130721
     74 H31        -0.6630   -1.0760    1.0460 h1        1 MOL      0.055400
     75 H32         0.0510   -1.6980    2.5330 h1        1 MOL      0.055400
     76 N7         -1.4500   -3.4220    0.9240 n         1 MOL     -0.091336
     77 C25        -1.8360   -4.8090    0.3300 c3        1 MOL     -0.192695
     78 C26        -2.5730   -4.6380   -0.9540 c         1 MOL      0.664291
     79 O14        -2.8870   -5.6100   -1.6600 o         1 MOL     -0.550848
     80 C27        -2.3640   -5.7100    1.4490 c3        1 MOL      0.107124
     81 C28        -3.8430   -5.4510    1.9470 c3        1 MOL     -0.213922
     82 C29        -3.9250   -4.2750    2.9180 c         1 MOL      0.387263
     83 N8         -4.3100   -4.4050    4.2140 n         1 MOL     -0.639468
     84 O15        -3.5760   -3.1750    2.6030 o         1 MOL     -0.385280
     85 H33        -2.1710   -2.8690    1.3810 hn        1 MOL      0.110629
     86 H34        -0.8940   -5.2820    0.0830 h1        1 MOL      0.132206
     87 H35        -1.7390   -5.5740    2.3280 hc        1 MOL      0.020896
     88 H36        -2.3320   -6.7330    1.1060 hc        1 MOL      0.020896
     89 H37        -4.2530   -6.3700    2.3710 hc        1 MOL      0.064557
     90 H38        -4.4770   -5.2160    1.0970 hc        1 MOL      0.064557
     91 H39        -4.6230   -5.3540    4.3650 hn        1 MOL      0.332729
     92 H40        -4.4630   -3.5900    4.7840 hn        1 MOL      0.332729
     93 N9         -2.9240   -3.3790   -1.3750 n         1 MOL     -0.554164
     94 C30        -3.4090   -3.1400   -2.7150 c3        1 MOL     -0.108012
     95 C31        -4.8220   -2.5980   -2.8450 c         1 MOL      0.576547
     96 O16        -5.3960   -2.6800   -3.9330 o         1 MOL     -0.565788
     97 C32        -2.3560   -2.2660   -3.4510 c3        1 MOL      0.142942
     98 C33        -1.0750   -3.0840   -3.7600 c3        1 MOL     -0.231832
     99 C34        -2.0960   -0.9660   -2.6520 c3        1 MOL     -0.231832
    100 H41        -2.7620   -2.6150   -0.7320 hn        1 MOL      0.277114
    101 H42        -3.5170   -4.0750   -3.2740 h1        1 MOL      0.141850
    102 H43        -2.8470   -1.9970   -4.3810 hc        1 MOL      0.012511
    103 H44        -0.5650   -2.4750   -4.5120 hc        1 MOL      0.059966
    104 H45        -0.4090   -3.0980   -2.9010 hc        1 MOL      0.059966
    105 H46        -1.3000   -4.1290   -3.9580 hc        1 MOL      0.059966
    106 H47        -1.5560   -1.1360   -1.7100 hc        1 MOL      0.059966
    107 H48        -1.4500   -0.3180   -3.2330 hc        1 MOL      0.059966
    108 H49        -3.0060   -0.3700   -2.5810 hc        1 MOL      0.059966
    109 N10        -5.4050   -2.1600   -1.7670 n         1 MOL     -0.210116
    110 C35        -6.7120   -1.5590   -1.8360 c3        1 MOL     -0.076168
    111 C36        -6.6960   -0.0340   -1.5870 c         1 MOL      0.653102
    112 O17        -7.3540    0.6700   -2.3260 o         1 MOL     -0.554998
    113 C37        -7.5510   -2.1270   -0.7010 c3        1 MOL     -0.209951
    114 C38        -7.6970   -3.6270   -0.8590 c         1 MOL      0.546479
    115 N11        -7.3360   -4.3950    0.1700 n         1 MOL     -0.747813
    116 O18        -7.9880   -4.2170   -1.8900 o         1 MOL     -0.503217
    117 H50        -5.0040   -2.2610   -0.8430 hn        1 MOL      0.184825
    118 H51        -7.2150   -1.8270   -2.7700 h1        1 MOL      0.111964
    119 H52        -8.4860   -1.5600   -0.6920 hc        1 MOL      0.092963
    120 H53        -7.0720   -1.9100    0.2570 hc        1 MOL      0.092963
    121 H54        -7.2460   -3.9230    1.0590 hn        1 MOL      0.353557
    122 H55        -7.4760   -5.3570   -0.1040 hn        1 MOL      0.353557
    123 N12        -5.9600    0.4210   -0.5670 n         1 MOL     -0.596501
    124 C39        -6.1420    1.7930   -0.1210 c3        1 MOL      0.147752
    125 C40        -4.9280    2.5310    0.3190 c         1 MOL      0.635014
    126 O19        -3.8730    1.9930    0.6320 o         1 MOL     -0.517823
    127 C41        -7.0580    1.7840    1.1360 c3        1 MOL     -0.106046
    128 C42        -8.4460    1.0090    1.0110 ca        1 MOL      0.004174
    129 C43        -9.4990    1.7490    0.4410 ca        1 MOL     -0.101461
    130 C44        -8.6420   -0.2320    1.7180 ca        1 MOL     -0.101461
    131 C45       -10.7800    1.1180    0.5300 ca        1 MOL     -0.331636
    132 C46        -9.9350   -0.8190    1.7490 ca        1 MOL     -0.331636
    133 C47       -10.9970   -0.1930    1.0660 ca        1 MOL      0.400772
    134 O20       -12.1650   -0.7440    0.9530 oh        1 MOL     -0.481440
    135 H56        -5.4210   -0.1540    0.0640 hn        1 MOL      0.290823
    136 H57        -6.6860    2.3280   -0.8920 h1        1 MOL      0.045151
    137 H58        -7.1920    2.7870    1.5200 hc        1 MOL      0.072025
    138 H59        -6.5600    1.2860    1.9720 hc        1 MOL      0.072025
    139 H60        -9.2700    2.6810   -0.0570 ha        1 MOL      0.130830
    140 H61        -7.7770   -0.6770    2.1870 ha        1 MOL      0.130830
    141 H62       -11.6160    1.6520    0.1030 ha        1 MOL      0.138234
    142 H63       -10.1810   -1.7680    2.2100 ha        1 MOL      0.138234
    143 H64       -12.7430   -0.1800    0.4350 ho        1 MOL      0.363000
    144 N13        -4.9350    3.8440    0.0810 n         1 MOL     -0.717531
    145 C48        -3.9130    4.8160    0.4410 c3        1 MOL      0.015024
    146 C49        -2.6270    4.9010   -0.3760 c         1 MOL      0.359325
    147 O21        -2.0120    5.9880   -0.4650 o         1 MOL     -0.504895
    148 C50        -3.7210    4.9820    1.9240 c3        1 MOL      0.132148
    149 C51        -4.9380    5.2990    2.6860 c3        1 MOL     -0.173169
    150 C52        -4.6360    5.1050    4.1790 c         1 MOL      0.679628
    151 O22        -4.4660    6.1120    4.9140 o         1 MOL     -0.717208
    152 O23        -4.5830    3.9910    4.7010 o         1 MOL     -0.717208
    153 H65        -5.8060    4.2650   -0.2000 hn        1 MOL      0.351448
    154 H66        -4.3520    5.7700    0.1330 h1        1 MOL      0.079762
    155 H67        -3.0480    5.8320    2.0310 hc        1 MOL      0.026892
    156 H68        -3.2900    4.0590    2.3000 hc        1 MOL      0.026892
    157 H69        -5.7930    4.7000    2.3780 hc        1 MOL     -0.015493
    158 H70        -5.2660    6.3330    2.6070 hc        1 MOL     -0.015493
    159 N14        -2.1600    3.8000   -1.0150 n         1 MOL     -0.209101
    160 C53        -0.9850    3.8040   -1.8910 c3        1 MOL     -0.085177
    161 C54        -1.2170    4.4530   -3.2530 c         1 MOL      0.454960
    162 O24        -0.2940    5.0410   -3.7960 o         1 MOL     -0.514423
    163 C55        -0.4290    2.3740   -2.0020 c3        1 MOL      0.129907
    164 C56        -0.3570    1.5450   -0.7470 c3        1 MOL      0.277842
    165 C57         0.7060    2.0360    0.2480 c         1 MOL      0.521818
    166 O25         1.9090    1.7290   -0.0120 o         1 MOL     -0.591231
    167 O26         0.3270    2.6990    1.2370 o         1 MOL     -0.591231
    168 H71        -2.7650    2.9990   -1.1700 hn        1 MOL      0.255589
    169 H72        -0.1950    4.3620   -1.3990 h1        1 MOL      0.157087
    170 H73         0.6020    2.3980   -2.3530 hc        1 MOL     -0.051947
    171 H74        -1.0530    1.8320   -2.7170 hc        1 MOL     -0.051947
    172 H75         0.1160    0.6030   -1.0150 hc        1 MOL     -0.150062
    173 H76        -1.3380    1.3680   -0.2890 hc        1 MOL     -0.150062
    174 N15        -2.4570    4.3190   -3.8330 n         1 MOL     -0.267849
    175 C58        -2.9700    5.2090   -4.8470 c3        1 MOL     -0.320736
    176 H77        -2.3570    6.1110   -4.8810 h1        1 MOL      0.122937
    177 H78        -2.9390    4.7130   -5.8160 h1        1 MOL      0.122937
    178 H79        -3.9990    5.4780   -4.6080 h1        1 MOL      0.122937
    179 H80        -3.1160    3.6850   -3.4100 hn        1 MOL      0.232520
    180 Ca1         4.1810    2.0440    1.2030 Ca        1 MOL      1.667852
    181 O27         4.9530    3.4100    3.4740 oh        1 MOL     -0.786970
    182 H81         4.7830    3.3630    4.4210 ho        1 MOL      0.379259
    183 H82         5.4950    4.1950    3.3710 ho        1 MOL      0.379259
    184 O28         6.4600    0.8790    2.4300 oh        1 MOL     -0.786970
    185 H83         6.8080    0.6160    3.2880 ho        1 MOL      0.379259
    186 H84         7.1070    0.5630    1.8100 ho        1 MOL      0.379259
    187 O29         2.8190    4.2930    1.8980 oh        1 MOL     -0.786970
    188 H85         1.9810    4.7430    1.7500 ho        1 MOL      0.379259
    189 H86         3.4200    4.9980    2.1660 ho        1 MOL      0.379259
@<TRIPOS>BOND
     1    1    2 1   
     2    1    4 1   
     3    1    5 1   
     4    1    6 1   
     5    2    3 2   
     6    2    7 1   
     7    7    8 1   
     8    7   15 1   
     9    8    9 1   
    10    8   11 1   
    11    8   16 1   
    12    9   10 2   
    13    9   19 1   
    14   11   12 1   
    15   11   17 1   
    16   11   18 1   
    17   12   13 1   
    18   12   14 1   
    19   19   20 1   
    20   19   27 1   
    21   20   21 1   
    22   20   23 1   
    23   20   28 1   
    24   21   22 2   
    25   21   38 1   
    26   23   24 1   
    27   23   25 1   
    28   23   29 1   
    29   24   26 1   
    30   24   30 1   
    31   24   31 1   
    32   25   32 1   
    33   25   33 1   
    34   25   34 1   
    35   26   35 1   
    36   26   36 1   
    37   26   37 1   
    38   38   39 1   
    39   38   46 1   
    40   39   40 1   
    41   39   42 1   
    42   39   47 1   
    43   40   41 2   
    44   40   50 1   
    45   42   43 1   
    46   42   48 1   
    47   42   49 1   
    48   43   44 1   
    49   43   45 1   
    50   50   51 1   
    51   50   54 1   
    52   51   52 1   
    53   51   55 1   
    54   51   56 1   
    55   52   53 2   
    56   52   57 1   
    57   57   58 1   
    58   57   65 1   
    59   58   59 1   
    60   58   61 1   
    61   58   66 1   
    62   59   60 2   
    63   59   69 1   
    64   61   62 1   
    65   61   67 1   
    66   61   68 1   
    67   62   63 1   
    68   62   64 1   
    69   69   70 1   
    70   69   73 1   
    71   70   71 1   
    72   70   74 1   
    73   70   75 1   
    74   71   72 2   
    75   71   76 1   
    76   76   77 1   
    77   76   85 1   
    78   77   78 1   
    79   77   80 1   
    80   77   86 1   
    81   78   79 2   
    82   78   93 1   
    83   80   81 1   
    84   80   87 1   
    85   80   88 1   
    86   81   82 1   
    87   81   89 1   
    88   81   90 1   
    89   82   83 1   
    90   82   84 2   
    91   83   91 1   
    92   83   92 1   
    93   93   94 1   
    94   93  100 1   
    95   94   95 1   
    96   94   97 1   
    97   94  101 1   
    98   95   96 2   
    99   95  109 1   
   100   97   98 1   
   101   97   99 1   
   102   97  102 1   
   103   98  103 1   
   104   98  104 1   
   105   98  105 1   
   106   99  106 1   
   107   99  107 1   
   108   99  108 1   
   109  109  110 1   
   110  109  117 1   
   111  110  111 1   
   112  110  113 1   
   113  110  118 1   
   114  111  112 2   
   115  111  123 1   
   116  113  114 1   
   117  113  119 1   
   118  113  120 1   
   119  114  115 1   
   120  114  116 2   
   121  115  121 1   
   122  115  122 1   
   123  123  124 1   
   124  123  135 1   
   125  124  125 1   
   126  124  127 1   
   127  124  136 1   
   128  125  126 2   
   129  125  144 1   
   130  127  128 1   
   131  127  137 1   
   132  127  138 1   
   133  128  129 ar  
   134  128  130 ar  
   135  129  131 ar  
   136  129  139 1   
   137  130  132 ar  
   138  130  140 1   
   139  131  133 ar  
   140  131  141 1   
   141  132  133 ar  
   142  132  142 1   
   143  133  134 1   
   144  134  143 1   
   145  144  145 1   
   146  144  153 1   
   147  145  146 1   
   148  145  148 1   
   149  145  154 1   
   150  146  147 2   
   151  146  159 1   
   152  148  149 1   
   153  148  155 1   
   154  148  156 1   
   155  149  150 1   
   156  149  157 1   
   157  149  158 1   
   158  150  151 1   
   159  150  152 1   
   160  159  160 1   
   161  159  168 1   
   162  160  161 1   
   163  160  163 1   
   164  160  169 1   
   165  161  162 2   
   166  161  174 1   
   167  163  164 1   
   168  163  170 1   
   169  163  171 1   
   170  164  165 1   
   171  164  172 1   
   172  164  173 1   
   173  165  166 1   
   174  165  167 1   
   175  174  175 1   
   176  174  179 1   
   177  175  176 1   
   178  175  177 1   
   179  175  178 1   
   180  181  182 1   
   181  181  183 1   
   182  184  185 1   
   183  184  186 1   
   184  187  188 1   
   185  187  189 1   
@<TRIPOS>SUBSTRUCTURE
     1 MOL         1 TEMP              0 ****  ****    0 ROOT
