@<TRIPOS>MOLECULE
MOL
  192   187     1     0     0
SMALL
resp


@<TRIPOS>ATOM
      1 C1          9.1470    0.3400    1.9440 c3        1 MOL     -0.476317
      2 C2          7.9380    0.0730    0.9910 c         1 MOL      0.695395
      3 O1          6.7880    0.0360    1.4210 o         1 MOL     -0.615060
      4 H1          9.1090    1.3710    2.2980 hc        1 MOL      0.120086
      5 H2          9.0950   -0.3380    2.7960 hc        1 MOL      0.120086
      6 H3         10.0790    0.1760    1.4040 hc        1 MOL      0.120086
      7 N1          8.2650   -0.2680   -0.2800 n         1 MOL     -0.489392
      8 C3          7.3530   -0.7660   -1.2980 c3        1 MOL      0.182418
      9 C4          6.6750   -2.1850   -1.0990 c         1 MOL      0.449854
     10 O2          6.4740   -2.9610   -2.0530 o         1 MOL     -0.439661
     11 C5          8.0520   -0.7820   -2.6410 c3        1 MOL     -0.319310
     12 C6          8.7590    0.5580   -3.0450 c         1 MOL      0.770558
     13 O3          9.9740    0.5780   -2.7210 o         1 MOL     -0.674090
     14 O4          8.1120    1.4980   -3.5090 o         1 MOL     -0.674090
     15 H4          9.2200   -0.1300   -0.5910 hn        1 MOL      0.269024
     16 H5          6.5440   -0.0410   -1.3470 h1        1 MOL      0.104570
     17 H6          7.2870   -0.9230   -3.4040 hc        1 MOL      0.061102
     18 H7          8.7410   -1.6260   -2.6450 hc        1 MOL      0.061102
     19 N2          6.3270   -2.6020    0.1990 n         1 MOL     -0.483520
     20 C7          5.8350   -3.9720    0.4690 c3        1 MOL      0.150400
     21 C8          4.2900   -4.1030    0.0610 c         1 MOL      0.379767
     22 O5          3.9880   -5.0680   -0.6640 o         1 MOL     -0.532958
     23 C9          6.0640   -4.4010    1.9130 c3        1 MOL     -0.171442
     24 C10         7.5650   -4.5760    2.2660 c3        1 MOL      0.084861
     25 C11         7.6110   -4.9390    3.7380 c3        1 MOL      0.223206
     26 C12         9.0530   -4.7620    4.2560 c3        1 MOL     -0.177235
     27 N3         10.0290   -5.7830    3.6720 n4        1 MOL     -0.150542
     28 H8          6.3300   -1.9100    0.9290 hn        1 MOL      0.262370
     29 H9          6.3660   -4.6050   -0.2480 h1        1 MOL      0.073328
     30 H10         5.4970   -5.3150    2.1180 hc        1 MOL      0.050951
     31 H11         5.6380   -3.7010    2.6210 hc        1 MOL      0.050951
     32 H12         8.1100   -3.6730    2.0230 hc        1 MOL     -0.030030
     33 H13         7.8640   -5.4960    1.7700 hc        1 MOL     -0.030030
     34 H14         7.2990   -5.9530    3.9780 hc        1 MOL     -0.013056
     35 H15         6.9110   -4.3530    4.3360 hc        1 MOL     -0.013056
     36 H16         8.8870   -4.8780    5.3270 hx        1 MOL      0.107012
     37 H17         9.3370   -3.7520    3.9640 hx        1 MOL      0.107012
     38 H18        10.1960   -5.5740    2.6960 hn        1 MOL      0.248880
     39 H19        10.9630   -5.7490    4.0520 hn        1 MOL      0.248880
     40 H20         9.7170   -6.7430    3.7660 hn        1 MOL      0.248880
     41 N4          3.3560   -3.1700    0.2700 n         1 MOL     -0.231780
     42 C13         3.3760   -1.9590    1.1980 c3        1 MOL     -0.065876
     43 C14         3.7280   -0.6330    0.4020 c         1 MOL      0.144706
     44 O6          3.9310   -0.6440   -0.8410 o         1 MOL     -0.322992
     45 C15         2.0920   -1.8540    2.0360 c3        1 MOL     -0.162556
     46 C16         0.8880   -2.1610    1.2330 c         1 MOL      0.693929
     47 O7          0.4990   -1.4520    0.3060 o         1 MOL     -0.687293
     48 O8          0.2170   -3.1300    1.5910 o         1 MOL     -0.687293
     49 H21         2.4510   -3.3840   -0.1050 hn        1 MOL      0.303275
     50 H22         4.2280   -1.9730    1.8860 h1        1 MOL      0.117434
     51 H23         2.0680   -0.8530    2.4860 hc        1 MOL      0.031830
     52 H24         2.2510   -2.6110    2.8060 hc        1 MOL      0.031830
     53 N5          3.8560    0.4730    1.1340 n         1 MOL     -0.280769
     54 C17         4.3060    1.7440    0.5660 c3        1 MOL      0.019963
     55 C18         3.2330    2.3310   -0.3790 c         1 MOL      0.622813
     56 O9          2.1410    1.6810   -0.6080 o         1 MOL     -0.669737
     57 H25         3.7360    0.3670    2.1280 hn        1 MOL      0.276536
     58 H26         5.1880    1.6320   -0.0580 h1        1 MOL      0.051752
     59 H27         4.4750    2.4960    1.3330 h1        1 MOL      0.051752
     60 N6          3.4970    3.4770   -1.0290 n         1 MOL     -0.335280
     61 C19         2.5220    4.1910   -1.8740 c3        1 MOL      0.126616
     62 C20         2.8430    5.6930   -1.8650 c         1 MOL      0.482926
     63 O10         3.9600    6.0390   -1.8380 o         1 MOL     -0.532042
     64 C21         2.6260    3.7140   -3.3570 c3        1 MOL     -0.328087
     65 C22         2.0130    2.3310   -3.5480 c         1 MOL      0.599613
     66 O11         0.8110    2.1640   -3.1910 o         1 MOL     -0.631230
     67 O12         2.7020    1.3620   -3.9570 o         1 MOL     -0.631230
     68 H28         4.3350    3.9890   -0.7720 hn        1 MOL      0.248552
     69 H29         1.5120    4.0510   -1.4790 h1        1 MOL      0.023421
     70 H30         3.6740    3.6100   -3.6430 hc        1 MOL      0.128920
     71 H31         2.2150    4.3850   -4.1130 hc        1 MOL      0.128920
     72 N7          1.9910    6.6030   -2.2090 n         1 MOL     -0.403417
     73 C23         0.6200    6.4800   -2.4650 c3        1 MOL      0.023410
     74 C24        -0.2660    6.1810   -1.2060 c         1 MOL      0.546721
     75 O13        -0.0190    6.5910   -0.1200 o         1 MOL     -0.528692
     76 H32         2.4400    7.4890   -2.3710 hn        1 MOL      0.299405
     77 H33         0.4720    5.7050   -3.2120 h1        1 MOL      0.050032
     78 H34         0.2510    7.3040   -3.0700 h1        1 MOL      0.050032
     79 N8         -1.2970    5.4840   -1.4990 n         1 MOL     -0.645595
     80 C25        -2.1390    4.8600   -0.3980 c3        1 MOL      0.236502
     81 C26        -1.3150    3.7650    0.2920 c         1 MOL      0.810744
     82 O14        -0.8100    2.8240   -0.2940 o         1 MOL     -0.824125
     83 C27        -3.3630    4.2380   -1.0560 c3        1 MOL      0.271224
     84 C28        -4.1050    5.4630   -1.6790 c3        1 MOL     -0.367727
     85 O15        -4.1160    3.7290    0.0320 oh        1 MOL     -0.711471
     86 H35        -1.3600    5.1380   -2.4420 hn        1 MOL      0.309009
     87 H36        -2.4690    5.5750    0.3460 h1        1 MOL      0.066259
     88 H37        -3.0850    3.4950   -1.7990 h1        1 MOL      0.042988
     89 H38        -5.0080    3.6380   -0.3190 ho        1 MOL      0.431451
     90 H39        -4.9960    5.1880   -2.2300 hc        1 MOL      0.107351
     91 H40        -4.3000    6.1360   -0.8480 hc        1 MOL      0.107351
     92 H41        -3.5770    5.9010   -2.5360 hc        1 MOL      0.107351
     93 N9         -1.2620    3.9140    1.6380 n         1 MOL     -0.561112
     94 C29        -0.5690    2.9700    2.5510 c3        1 MOL      0.083488
     95 C30        -1.1500    1.5580    2.3870 c         1 MOL      0.316833
     96 O16        -0.5800    0.7480    1.6800 o         1 MOL     -0.441922
     97 C31         0.9360    3.1130    2.4560 c3        1 MOL      0.003209
     98 C32         1.4060    4.5500    2.7570 c3        1 MOL      0.067787
     99 C33         1.6000    2.2410    3.4670 c3        1 MOL     -0.595566
    100 C34         2.8530    4.7690    2.3780 c3        1 MOL     -0.143420
    101 H42        -1.6620    4.7510    2.0500 hn        1 MOL      0.285129
    102 H43        -0.8830    3.2330    3.5620 h1        1 MOL      0.075495
    103 H44         1.2710    2.9420    1.4360 hc        1 MOL      0.178943
    104 H45         1.2320    4.8120    3.8040 hc        1 MOL     -0.003731
    105 H46         0.7600    5.2180    2.1870 hc        1 MOL     -0.003731
    106 H47         1.0100    1.3370    3.6240 hc        1 MOL      0.153616
    107 H48         2.6070    1.9040    3.2300 hc        1 MOL      0.153616
    108 H49         1.7110    2.6510    4.4710 hc        1 MOL      0.153616
    109 H50         3.2120    4.4810    1.3910 hc        1 MOL      0.031482
    110 H51         3.0210    5.8480    2.4130 hc        1 MOL      0.031482
    111 H52         3.5510    4.4530    3.1560 hc        1 MOL      0.031482
    112 N10        -2.3190    1.2950    3.0210 n         1 MOL     -0.050670
    113 C35        -2.8530   -0.0180    3.2620 c3        1 MOL     -0.211142
    114 C36        -4.3630   -0.2120    2.9720 c         1 MOL      0.514035
    115 O17        -4.8830   -1.2770    3.3500 o         1 MOL     -0.539016
    116 C37        -2.5310   -0.3920    4.7230 c3        1 MOL      0.404116
    117 C38        -3.2770    0.3940    5.7900 c3        1 MOL     -0.369415
    118 O18        -1.2080   -0.1390    4.9550 oh        1 MOL     -0.598407
    119 H53        -2.6570    2.1340    3.4710 hn        1 MOL      0.172368
    120 H54        -2.3060   -0.7140    2.6170 h1        1 MOL      0.175062
    121 H55        -2.7700   -1.4430    4.8370 h1        1 MOL      0.002213
    122 H56        -0.7860   -0.9730    4.7570 ho        1 MOL      0.386376
    123 H57        -3.0470    1.4350    5.5990 hc        1 MOL      0.090782
    124 H58        -4.3280    0.1180    5.6950 hc        1 MOL      0.090782
    125 H59        -2.9590    0.1870    6.8120 hc        1 MOL      0.090782
    126 N11        -4.9540    0.8050    2.4350 n         1 MOL     -0.354962
    127 C39        -6.3870    0.8920    2.1470 c3        1 MOL     -0.044374
    128 C40        -6.7430    0.0120    0.9550 c         1 MOL      0.521092
    129 O19        -7.2100    0.4760   -0.0520 o         1 MOL     -0.540773
    130 C41        -6.9520    2.3100    2.0210 c3        1 MOL      0.583851
    131 C42        -8.4970    2.1800    2.1880 c3        1 MOL     -0.433669
    132 O20        -6.3580    3.0590    3.0450 oh        1 MOL     -0.620985
    133 H60        -4.3350    1.5250    2.0950 hn        1 MOL      0.213713
    134 H61        -6.7830    0.4080    3.0420 h1        1 MOL      0.083963
    135 H62        -6.7400    2.8020    1.0750 h1        1 MOL     -0.073006
    136 H63        -5.4300    3.0440    2.7910 ho        1 MOL      0.349364
    137 H64        -8.5810    1.6480    3.1350 hc        1 MOL      0.113323
    138 H65        -8.9740    3.1480    2.3130 hc        1 MOL      0.113323
    139 H66        -8.9810    1.6130    1.3850 hc        1 MOL      0.113323
    140 N12        -6.7440   -1.3230    1.1270 n         1 MOL     -0.769610
    141 C43        -6.6990   -2.3310    0.0540 c3        1 MOL      0.607126
    142 C44        -5.3330   -2.1700   -0.7230 c         1 MOL      0.430182
    143 O21        -4.6200   -1.1690   -0.5690 o         1 MOL     -0.454364
    144 C45        -7.9430   -2.4350   -0.8280 c3        1 MOL     -0.665302
    145 C46        -9.2500   -2.2750   -0.0080 c3        1 MOL      0.461197
    146 C47       -10.4860   -2.9720   -0.6240 c3        1 MOL     -0.147072
    147 C48       -11.5880   -2.7980    0.2980 c3        1 MOL      0.213538
    148 N13       -12.9280   -3.2480   -0.2300 n4        1 MOL     -0.291125
    149 H67        -6.1900   -1.5150    1.9530 hn        1 MOL      0.337285
    150 H68        -6.4970   -3.3110    0.4900 h1        1 MOL     -0.042535
    151 H69        -8.0280   -3.4470   -1.2040 hc        1 MOL      0.161817
    152 H70        -7.8050   -1.7490   -1.6630 hc        1 MOL      0.161817
    153 H71        -9.6190   -1.2650    0.1760 hc        1 MOL     -0.050182
    154 H72        -9.0540   -2.6960    0.9820 hc        1 MOL     -0.050182
    155 H73       -10.3290   -4.0390   -0.7200 hc        1 MOL      0.033468
    156 H74       -10.6930   -2.4890   -1.5770 hc        1 MOL      0.033468
    157 H75       -11.6950   -1.7380    0.4940 hx        1 MOL      0.004811
    158 H76       -11.4440   -3.2920    1.2590 hx        1 MOL      0.004811
    159 H77       -12.9730   -4.2590   -0.2060 hn        1 MOL      0.237620
    160 H78       -13.6850   -2.8150    0.2770 hn        1 MOL      0.237620
    161 H79       -13.0030   -2.8760   -1.1650 hn        1 MOL      0.237620
    162 N14        -4.8490   -3.1410   -1.4900 n         1 MOL     -0.584320
    163 C49        -3.5810   -3.0210   -2.2260 c3        1 MOL      0.217652
    164 C50        -2.2950   -2.7370   -1.4000 c         1 MOL      0.331176
    165 O22        -1.5670   -1.8190   -1.7190 o         1 MOL     -0.563413
    166 C51        -3.3920   -4.2590   -3.2080 c3        1 MOL      0.099910
    167 C52        -4.4970   -4.2850   -4.2540 c3        1 MOL     -0.274894
    168 C53        -4.1750   -5.4680   -5.1250 c         1 MOL      0.741756
    169 O23        -4.9150   -6.4540   -5.0930 o         1 MOL     -0.659117
    170 O24        -3.2210   -5.4080   -5.9050 o         1 MOL     -0.659117
    171 H80        -5.3860   -3.9840   -1.6220 hn        1 MOL      0.330477
    172 H81        -3.6920   -2.1300   -2.8430 h1        1 MOL      0.044221
    173 H82        -3.4000   -5.1980   -2.6690 hc        1 MOL      0.016727
    174 H83        -2.3930   -4.2220   -3.6580 hc        1 MOL      0.016727
    175 H84        -4.3970   -3.3950   -4.8840 hc        1 MOL      0.029342
    176 H85        -5.4530   -4.4410   -3.7580 hc        1 MOL      0.029342
    177 N15        -2.0170   -3.4050   -0.2520 n         1 MOL     -0.195339
    178 C54        -2.7210   -4.5650    0.2710 c3        1 MOL     -0.113049
    179 H86        -3.2440   -5.0690   -0.5410 h1        1 MOL      0.054864
    180 H87        -2.0050   -5.2520    0.7230 h1        1 MOL      0.054864
    181 H88        -3.4420   -4.2440    1.0230 h1        1 MOL      0.054864
    182 H89        -1.2920   -2.9240    0.2730 hn        1 MOL      0.270097
    183 Ca1        -0.1530    0.4540   -1.2880 Ca        1 MOL      1.876389
    184 O25         1.6280   -0.8340   -2.9380 oh        1 MOL     -0.927830
    185 H90         2.2290   -0.1500   -3.2470 ho        1 MOL      0.429194
    186 H91         1.8250   -1.5820   -3.4970 ho        1 MOL      0.429194
    187 O26        -1.3200    0.3660   -3.6020 oh        1 MOL     -0.927830
    188 H92        -1.5290   -0.5140   -3.9060 ho        1 MOL      0.429194
    189 H93        -0.9310    0.7950   -4.3560 ho        1 MOL      0.429194
    190 O27        -2.8090    0.8560   -0.4020 oh        1 MOL     -0.927830
    191 H94        -3.2850    0.0490   -0.6100 ho        1 MOL      0.429194
    192 H95        -3.1990    1.5170   -0.9720 ho        1 MOL      0.429194
@<TRIPOS>BOND
     1    1    2 1   
     2    1    4 1   
     3    1    5 1   
     4    1    6 1   
     5    2    3 2   
     6    2    7 1   
     7    7    8 1   
     8    7   15 1   
     9    8    9 1   
    10    8   11 1   
    11    8   16 1   
    12    9   10 2   
    13    9   19 1   
    14   11   12 1   
    15   11   17 1   
    16   11   18 1   
    17   12   13 1   
    18   12   14 1   
    19   19   20 1   
    20   19   28 1   
    21   20   21 1   
    22   20   23 1   
    23   20   29 1   
    24   21   22 2   
    25   21   41 1   
    26   23   24 1   
    27   23   30 1   
    28   23   31 1   
    29   24   25 1   
    30   24   32 1   
    31   24   33 1   
    32   25   26 1   
    33   25   34 1   
    34   25   35 1   
    35   26   27 1   
    36   26   36 1   
    37   26   37 1   
    38   27   38 1   
    39   27   39 1   
    40   27   40 1   
    41   41   42 1   
    42   41   49 1   
    43   42   43 1   
    44   42   45 1   
    45   42   50 1   
    46   43   44 2   
    47   43   53 1   
    48   45   46 1   
    49   45   51 1   
    50   45   52 1   
    51   46   47 1   
    52   46   48 1   
    53   53   54 1   
    54   53   57 1   
    55   54   55 1   
    56   54   58 1   
    57   54   59 1   
    58   55   56 2   
    59   55   60 1   
    60   60   61 1   
    61   60   68 1   
    62   61   62 1   
    63   61   64 1   
    64   61   69 1   
    65   62   63 2   
    66   62   72 1   
    67   64   65 1   
    68   64   70 1   
    69   64   71 1   
    70   65   66 1   
    71   65   67 1   
    72   72   73 1   
    73   72   76 1   
    74   73   74 1   
    75   73   77 1   
    76   73   78 1   
    77   74   75 2   
    78   74   79 1   
    79   79   80 1   
    80   79   86 1   
    81   80   81 1   
    82   80   83 1   
    83   80   87 1   
    84   81   82 2   
    85   81   93 1   
    86   83   84 1   
    87   83   85 1   
    88   83   88 1   
    89   84   90 1   
    90   84   91 1   
    91   84   92 1   
    92   85   89 1   
    93   93   94 1   
    94   93  101 1   
    95   94   95 1   
    96   94   97 1   
    97   94  102 1   
    98   95   96 2   
    99   95  112 1   
   100   97   98 1   
   101   97   99 1   
   102   97  103 1   
   103   98  100 1   
   104   98  104 1   
   105   98  105 1   
   106   99  106 1   
   107   99  107 1   
   108   99  108 1   
   109  100  109 1   
   110  100  110 1   
   111  100  111 1   
   112  112  113 1   
   113  112  119 1   
   114  113  114 1   
   115  113  116 1   
   116  113  120 1   
   117  114  115 2   
   118  114  126 1   
   119  116  117 1   
   120  116  118 1   
   121  116  121 1   
   122  117  123 1   
   123  117  124 1   
   124  117  125 1   
   125  118  122 1   
   126  126  127 1   
   127  126  133 1   
   128  127  128 1   
   129  127  130 1   
   130  127  134 1   
   131  128  129 2   
   132  128  140 1   
   133  130  131 1   
   134  130  132 1   
   135  130  135 1   
   136  131  137 1   
   137  131  138 1   
   138  131  139 1   
   139  132  136 1   
   140  140  141 1   
   141  140  149 1   
   142  141  142 1   
   143  141  144 1   
   144  141  150 1   
   145  142  143 2   
   146  142  162 1   
   147  144  145 1   
   148  144  151 1   
   149  144  152 1   
   150  145  146 1   
   151  145  153 1   
   152  145  154 1   
   153  146  147 1   
   154  146  155 1   
   155  146  156 1   
   156  147  148 1   
   157  147  157 1   
   158  147  158 1   
   159  148  159 1   
   160  148  160 1   
   161  148  161 1   
   162  162  163 1   
   163  162  171 1   
   164  163  164 1   
   165  163  166 1   
   166  163  172 1   
   167  164  165 2   
   168  164  177 1   
   169  166  167 1   
   170  166  173 1   
   171  166  174 1   
   172  167  168 1   
   173  167  175 1   
   174  167  176 1   
   175  168  169 1   
   176  168  170 1   
   177  177  178 1   
   178  177  182 1   
   179  178  179 1   
   180  178  180 1   
   181  178  181 1   
   182  184  185 1   
   183  184  186 1   
   184  187  188 1   
   185  187  189 1   
   186  190  191 1   
   187  190  192 1   
@<TRIPOS>SUBSTRUCTURE
     1 MOL         1 TEMP              0 ****  ****    0 ROOT
