@<TRIPOS>MOLECULE
MOL
  184   179     1     0     0
SMALL
resp


@<TRIPOS>ATOM
      1 C1         10.3340   -2.9400   -5.4620 c3        1 MOL     -0.292376
      2 C2          9.3350   -2.5450   -4.4170 c         1 MOL      0.633357
      3 O1          8.2640   -1.9870   -4.7550 o         1 MOL     -0.537713
      4 H1         11.0600   -2.1380   -5.5920 hc        1 MOL      0.066525
      5 H2         10.8490   -3.8480   -5.1480 hc        1 MOL      0.066525
      6 H3          9.8200   -3.1210   -6.4060 hc        1 MOL      0.066525
      7 N1          9.5940   -2.7670   -3.1390 n         1 MOL     -0.546964
      8 C3         10.8290   -3.2260   -2.3900 c3        1 MOL      0.133089
      9 C4         11.5150   -1.9680   -1.7800 c         1 MOL      0.454029
     10 O2         12.5610   -2.1080   -1.2310 o         1 MOL     -0.572139
     11 C5         10.4630   -4.3810   -1.4110 c3        1 MOL     -0.065984
     12 C6          9.3910   -3.9300   -0.3760 c         1 MOL      0.870888
     13 O3          8.9050   -4.7000    0.4760 o         1 MOL     -0.832793
     14 O4          9.1430   -2.7240   -0.2410 o         1 MOL     -0.832793
     15 H4          8.8960   -2.4480   -2.4750 hn        1 MOL      0.267901
     16 H5         11.5450   -3.6910   -3.0600 h1        1 MOL      0.041484
     17 H6         11.3390   -4.7000   -0.8380 hc        1 MOL      0.018502
     18 H7         10.1910   -5.2930   -1.9300 hc        1 MOL      0.018502
     19 N2         10.9770   -0.7450   -1.9100 n         1 MOL     -0.323617
     20 C7         11.5010    0.5380   -1.3700 c3        1 MOL      0.473861
     21 C8         10.4890    1.4560   -0.7680 c         1 MOL      0.332916
     22 O5         10.5150    2.6550   -0.9430 o         1 MOL     -0.549360
     23 C9         12.2170    1.1380   -2.5510 c3        1 MOL     -0.519720
     24 H8         10.0760   -0.7330   -2.3830 hn        1 MOL      0.209347
     25 H9         12.1930    0.3380   -0.5530 h1        1 MOL     -0.013955
     26 H10        12.9410    0.4270   -2.9410 hc        1 MOL      0.120729
     27 H11        11.4450    1.3760   -3.2850 hc        1 MOL      0.120729
     28 H12        12.9200    1.9080   -2.2130 hc        1 MOL      0.120729
     29 N3          9.4470    0.8760   -0.3350 n         1 MOL     -0.340528
     30 C10         8.1180    1.5980   -0.0550 c3        1 MOL      0.332524
     31 C11         7.4530    1.3540    1.2830 c         1 MOL      0.158299
     32 O6          7.6060    0.2280    1.8080 o         1 MOL     -0.488347
     33 C12         7.0980    1.3790   -1.1690 c3        1 MOL     -0.153764
     34 C13         7.0660   -0.1120   -1.3840 c         1 MOL      0.646353
     35 O7          7.5610   -0.5700   -2.4450 o         1 MOL     -0.603433
     36 O8          6.4180   -0.8810   -0.6090 o         1 MOL     -0.603433
     37 H13         9.4860   -0.1280   -0.3350 hn        1 MOL      0.193341
     38 H14         8.3090    2.6640    0.0160 h1        1 MOL     -0.016912
     39 H15         7.3600    1.9120   -2.0880 hc        1 MOL      0.043115
     40 H16         6.1290    1.7060   -0.8050 hc        1 MOL      0.043115
     41 N4          6.7710    2.3400    1.8810 n         1 MOL     -0.082982
     42 C14         5.8750    2.2400    2.9520 c3        1 MOL     -0.555678
     43 C15         4.4890    1.8020    2.6340 c         1 MOL      0.794562
     44 O9          4.2640    1.0120    1.7480 o         1 MOL     -0.557505
     45 H17         6.8340    3.2160    1.3870 hn        1 MOL      0.249965
     46 H18         5.7950    3.2560    3.3480 h1        1 MOL      0.188658
     47 H19         6.3840    1.6910    3.7370 h1        1 MOL      0.188658
     48 N5          3.5300    2.1890    3.4440 n         1 MOL     -0.523315
     49 C16         2.1410    1.8360    3.4050 c3        1 MOL     -0.017414
     50 C17         1.2990    2.7510    2.4980 c         1 MOL      0.714392
     51 O10         1.2630    3.9670    2.6310 o         1 MOL     -0.562367
     52 C18         1.5870    1.8300    4.9120 c3        1 MOL     -0.321260
     53 C19         2.3180    0.7870    5.7070 c         1 MOL      0.744692
     54 N6          1.6690   -0.3880    5.8210 n         1 MOL     -0.821948
     55 O11         3.4080    0.9360    6.2040 o         1 MOL     -0.601005
     56 H20         3.8060    2.7490    4.2350 hn        1 MOL      0.297949
     57 H21         1.9710    0.8420    2.9820 h1        1 MOL      0.092647
     58 H22         0.5230    1.6110    4.9180 hc        1 MOL      0.105044
     59 H23         1.9080    2.7830    5.3430 hc        1 MOL      0.105044
     60 H24         0.8280   -0.4690    5.2600 hn        1 MOL      0.374376
     61 H25         2.0230   -1.0760    6.4710 hn        1 MOL      0.374376
     62 N7          0.6600    2.1400    1.4730 n         1 MOL     -0.644748
     63 C20        -0.1720    2.8660    0.5220 c3        1 MOL      0.268572
     64 C21         0.6190    3.6430   -0.5220 c         1 MOL      0.441528
     65 O12         1.5400    3.0800   -1.0530 o         1 MOL     -0.524286
     66 H26         0.6730    1.1330    1.5050 hn        1 MOL      0.351854
     67 H27        -0.8070    3.5610    1.0640 h1        1 MOL      0.040503
     68 H28        -0.8940    2.1770    0.0670 h1        1 MOL      0.040503
     69 N8          0.1680    4.8290   -0.9190 n         1 MOL     -0.350395
     70 C22        -0.8850    5.5510   -0.2680 c3        1 MOL     -0.117350
     71 C23        -2.3420    4.9830   -0.3620 c         1 MOL      0.412734
     72 O13        -3.0460    5.0970    0.6160 o         1 MOL     -0.544931
     73 C24        -0.8090    7.0520   -0.6020 c3        1 MOL      0.454188
     74 C25         0.5150    7.6540   -0.2010 c3        1 MOL     -0.521336
     75 O14        -0.9470    7.2980   -1.9680 oh        1 MOL     -0.626298
     76 H29         0.6440    5.3560   -1.6310 hn        1 MOL      0.241492
     77 H30        -0.6460    5.4670    0.7970 h1        1 MOL      0.083507
     78 H31        -1.5930    7.5760   -0.0470 h1        1 MOL      0.010732
     79 H32        -0.1010    7.6690   -2.2580 ho        1 MOL      0.381243
     80 H33         1.2920    7.1960   -0.8180 hc        1 MOL      0.125064
     81 H34         0.4820    8.7260   -0.3740 hc        1 MOL      0.125064
     82 H35         0.7690    7.4590    0.8340 hc        1 MOL      0.125064
     83 N9         -2.6690    4.3530   -1.4820 n         1 MOL     -0.036469
     84 C26        -3.8780    3.5100   -1.6050 c3        1 MOL     -0.006300
     85 C27        -3.4690    2.0150   -1.6130 c         1 MOL      0.614282
     86 O15        -2.3070    1.7340   -2.0320 o         1 MOL     -0.622973
     87 C28        -4.7300    3.7790   -2.8270 c3        1 MOL     -0.219692
     88 C29        -4.9610    5.2980   -2.9920 c3        1 MOL      0.141383
     89 C30        -5.9500    2.9540   -2.8810 c3        1 MOL      0.151460
     90 C31        -5.4660    6.0660   -1.8170 c3        1 MOL     -0.280597
     91 H36        -1.9480    4.3430   -2.1960 hn        1 MOL      0.150959
     92 H37        -4.5650    3.6580   -0.7700 h1        1 MOL      0.088532
     93 H38        -4.1370    3.4350   -3.6760 hc        1 MOL      0.030023
     94 H39        -5.6530    5.4980   -3.8090 hc        1 MOL     -0.026917
     95 H40        -4.0420    5.7930   -3.2980 hc        1 MOL     -0.026917
     96 H41        -5.5910    1.9150   -2.8040 hc        1 MOL      0.014610
     97 H42        -6.6600    3.1150   -2.0700 hc        1 MOL      0.014610
     98 H43        -6.4510    3.0740   -3.8360 hc        1 MOL      0.014610
     99 H44        -5.6940    7.0290   -2.2780 hc        1 MOL      0.061569
    100 H45        -6.4680    5.7790   -1.4960 hc        1 MOL      0.061569
    101 H46        -4.6500    6.1760   -1.1080 hc        1 MOL      0.061569
    102 N10        -4.0960    1.1070   -0.8970 n         1 MOL     -0.566884
    103 C32        -5.1160    1.2250    0.1220 c3        1 MOL      0.269604
    104 C33        -5.8960   -0.0330    0.4520 c         1 MOL      0.592636
    105 O16        -5.4500   -1.1320    0.2520 o         1 MOL     -0.485904
    106 C34        -4.6100    1.7960    1.4460 c3        1 MOL     -0.220216
    107 C35        -3.3880    0.9450    2.0530 c         1 MOL      0.713532
    108 O17        -2.5970    1.4580    2.8810 o         1 MOL     -0.709530
    109 O18        -3.2040   -0.2500    1.8170 o         1 MOL     -0.709530
    110 H47        -3.5740    0.2340   -0.9280 hn        1 MOL      0.318839
    111 H48        -5.8590    1.8850   -0.3250 h1        1 MOL     -0.001663
    112 H49        -5.4420    1.7230    2.1450 hc        1 MOL      0.000265
    113 H50        -4.3300    2.8290    1.2620 hc        1 MOL      0.000265
    114 N11        -7.1810    0.1710    0.8040 n         1 MOL     -0.715141
    115 C36        -8.0940   -0.8560    1.2480 c3        1 MOL      0.712124
    116 C37        -9.5330   -0.6570    0.6870 c         1 MOL      0.024932
    117 O19       -10.0060    0.4770    0.6360 o         1 MOL     -0.471374
    118 C38        -8.0470   -0.8510    2.8300 c3        1 MOL     -0.402807
    119 C39        -8.8380   -1.9480    3.4540 ca        1 MOL      0.169723
    120 C40       -10.2140   -1.7490    3.5350 ca        1 MOL     -0.177775
    121 C41        -8.2620   -3.0820    4.0200 ca        1 MOL     -0.177775
    122 C42       -11.0570   -2.7560    4.0790 ca        1 MOL     -0.135689
    123 C43        -9.0710   -4.0940    4.5410 ca        1 MOL     -0.135689
    124 C44       -10.4620   -3.9900    4.3840 ca        1 MOL     -0.109087
    125 H51        -7.5150    1.1000    1.0050 hn        1 MOL      0.316537
    126 H52        -7.6630   -1.7940    0.9180 h1        1 MOL     -0.093567
    127 H53        -8.5160    0.0860    3.1270 hc        1 MOL      0.116504
    128 H54        -7.0240   -0.9870    3.1670 hc        1 MOL      0.116504
    129 H55       -10.6470   -0.8860    3.0490 ha        1 MOL      0.130915
    130 H56        -7.1820   -3.0890    4.1340 ha        1 MOL      0.130915
    131 H57       -12.1300   -2.6050    4.1160 ha        1 MOL      0.113260
    132 H58        -8.6790   -5.0180    4.9220 ha        1 MOL      0.113260
    133 H59       -11.0070   -4.8060    4.8120 ha        1 MOL      0.081182
    134 N12       -10.2700   -1.7210    0.3430 n         1 MOL      0.210827
    135 C45        -9.7100   -3.0650    0.3280 c3        1 MOL      0.048827
    136 C46        -8.6520   -3.2790   -0.7850 c         1 MOL      0.454621
    137 O20        -7.6720   -3.9380   -0.4940 o         1 MOL     -0.554253
    138 C47       -10.9790   -3.9620    0.2460 c3        1 MOL      0.005147
    139 C48       -12.1550   -3.1320   -0.3290 c3        1 MOL     -0.063690
    140 C49       -11.6780   -1.6840    0.0220 c3        1 MOL     -0.030296
    141 H60        -9.3710   -3.4410    1.2900 h1        1 MOL      0.016157
    142 H61       -10.8530   -4.8640   -0.3530 hc        1 MOL     -0.003641
    143 H62       -11.2990   -4.2340    1.2600 hc        1 MOL     -0.003641
    144 H63       -12.2150   -3.3310   -1.4020 hc        1 MOL      0.020840
    145 H64       -13.0910   -3.2440    0.2040 hc        1 MOL      0.020840
    146 H65       -11.9290   -0.9380   -0.7380 h1        1 MOL      0.023874
    147 H66       -12.0970   -1.4140    0.9900 h1        1 MOL      0.023874
    148 N13        -8.8280   -2.8510   -2.0070 n         1 MOL     -0.421288
    149 C50        -7.7630   -2.8460   -3.0410 c3        1 MOL      0.222903
    150 C51        -7.8050   -4.1990   -3.8950 c         1 MOL      0.371653
    151 O21        -8.5730   -4.3490   -4.8390 o         1 MOL     -0.555931
    152 C52        -7.9910   -1.5760   -3.9390 c3        1 MOL     -0.019768
    153 C53        -7.9580   -0.1880   -3.1820 c3        1 MOL     -0.019839
    154 C54        -8.4430    1.0410   -4.0290 c         1 MOL      0.697250
    155 O22        -8.1300    1.0760   -5.2280 o         1 MOL     -0.728702
    156 O23        -9.0370    1.9400   -3.4280 o         1 MOL     -0.728702
    157 H67        -9.6860   -2.3390   -2.1710 hn        1 MOL      0.284407
    158 H68        -6.7830   -2.6940   -2.5890 h1        1 MOL      0.071036
    159 H69        -8.9710   -1.5820   -4.4230 hc        1 MOL     -0.001856
    160 H70        -7.2450   -1.6750   -4.7180 hc        1 MOL     -0.001856
    161 H71        -6.9680    0.0830   -2.8290 hc        1 MOL     -0.066346
    162 H72        -8.6300   -0.2420   -2.3290 hc        1 MOL     -0.066346
    163 N14        -6.9870   -5.2150   -3.6280 n         1 MOL     -0.287508
    164 C55        -5.9020   -5.3410   -2.6510 c3        1 MOL     -0.136710
    165 H73        -5.8380   -4.4270   -2.0600 h1        1 MOL      0.075338
    166 H74        -6.1010   -6.1860   -1.9930 h1        1 MOL      0.075338
    167 H75        -4.9580   -5.5010   -3.1740 h1        1 MOL      0.075338
    168 H76        -7.0880   -6.0490   -4.2010 hn        1 MOL      0.248353
    169 Ca1         7.0650   -2.3280    1.3600 Ca        1 MOL      1.673155
    170 O24         6.6220   -4.7100    2.5690 oh        1 MOL     -0.818493
    171 H77         6.5770   -4.8750    3.5060 ho        1 MOL      0.407124
    172 H78         7.2010   -5.4030    2.2350 ho        1 MOL      0.407124
    173 O25         5.6010   -3.9330   -0.3080 oh        1 MOL     -0.818493
    174 H79         4.6500   -3.9150   -0.2140 ho        1 MOL      0.407124
    175 H80         5.8240   -4.8630   -0.3770 ho        1 MOL      0.407124
    176 O26         6.7410   -1.7760    3.8890 oh        1 MOL     -0.818493
    177 H81         6.0910   -2.2680    4.3830 ho        1 MOL      0.407124
    178 H82         7.2360   -1.2900    4.5540 ho        1 MOL      0.407124
    179 O27         4.3770   -2.1290    1.9240 oh        1 MOL     -0.818493
    180 H83         3.9830   -2.1840    2.7950 ho        1 MOL      0.407124
    181 H84         3.7260   -1.6750    1.3870 ho        1 MOL      0.407124
    182 O28         9.4820   -2.8030    2.3580 oh        1 MOL     -0.818493
    183 H85         9.5030   -3.4920    1.6850 ho        1 MOL      0.407124
    184 H86         9.9000   -3.2070    3.1240 ho        1 MOL      0.407124
@<TRIPOS>BOND
     1    1    2 1   
     2    1    4 1   
     3    1    5 1   
     4    1    6 1   
     5    2    3 2   
     6    2    7 1   
     7    7    8 1   
     8    7   15 1   
     9    8    9 1   
    10    8   11 1   
    11    8   16 1   
    12    9   10 2   
    13    9   19 1   
    14   11   12 1   
    15   11   17 1   
    16   11   18 1   
    17   12   13 1   
    18   12   14 1   
    19   19   20 1   
    20   19   24 1   
    21   20   21 1   
    22   20   23 1   
    23   20   25 1   
    24   21   22 2   
    25   21   29 1   
    26   23   26 1   
    27   23   27 1   
    28   23   28 1   
    29   29   30 1   
    30   29   37 1   
    31   30   31 1   
    32   30   33 1   
    33   30   38 1   
    34   31   32 2   
    35   31   41 1   
    36   33   34 1   
    37   33   39 1   
    38   33   40 1   
    39   34   35 1   
    40   34   36 1   
    41   41   42 1   
    42   41   45 1   
    43   42   43 1   
    44   42   46 1   
    45   42   47 1   
    46   43   44 2   
    47   43   48 1   
    48   48   49 1   
    49   48   56 1   
    50   49   50 1   
    51   49   52 1   
    52   49   57 1   
    53   50   51 2   
    54   50   62 1   
    55   52   53 1   
    56   52   58 1   
    57   52   59 1   
    58   53   54 1   
    59   53   55 2   
    60   54   60 1   
    61   54   61 1   
    62   62   63 1   
    63   62   66 1   
    64   63   64 1   
    65   63   67 1   
    66   63   68 1   
    67   64   65 2   
    68   64   69 1   
    69   69   70 1   
    70   69   76 1   
    71   70   71 1   
    72   70   73 1   
    73   70   77 1   
    74   71   72 2   
    75   71   83 1   
    76   73   74 1   
    77   73   75 1   
    78   73   78 1   
    79   74   80 1   
    80   74   81 1   
    81   74   82 1   
    82   75   79 1   
    83   83   84 1   
    84   83   91 1   
    85   84   85 1   
    86   84   87 1   
    87   84   92 1   
    88   85   86 2   
    89   85  102 1   
    90   87   88 1   
    91   87   89 1   
    92   87   93 1   
    93   88   90 1   
    94   88   94 1   
    95   88   95 1   
    96   89   96 1   
    97   89   97 1   
    98   89   98 1   
    99   90   99 1   
   100   90  100 1   
   101   90  101 1   
   102  102  103 1   
   103  102  110 1   
   104  103  104 1   
   105  103  106 1   
   106  103  111 1   
   107  104  105 2   
   108  104  114 1   
   109  106  107 1   
   110  106  112 1   
   111  106  113 1   
   112  107  108 1   
   113  107  109 1   
   114  114  115 1   
   115  114  125 1   
   116  115  116 1   
   117  115  118 1   
   118  115  126 1   
   119  116  117 2   
   120  116  134 1   
   121  118  119 1   
   122  118  127 1   
   123  118  128 1   
   124  119  120 ar  
   125  119  121 ar  
   126  120  122 ar  
   127  120  129 1   
   128  121  123 ar  
   129  121  130 1   
   130  122  124 ar  
   131  122  131 1   
   132  123  124 ar  
   133  123  132 1   
   134  124  133 1   
   135  134  135 1   
   136  134  140 1   
   137  135  136 1   
   138  135  138 1   
   139  135  141 1   
   140  136  137 2   
   141  136  148 1   
   142  138  139 1   
   143  138  142 1   
   144  138  143 1   
   145  139  140 1   
   146  139  144 1   
   147  139  145 1   
   148  140  146 1   
   149  140  147 1   
   150  148  149 1   
   151  148  157 1   
   152  149  150 1   
   153  149  152 1   
   154  149  158 1   
   155  150  151 2   
   156  150  163 1   
   157  152  153 1   
   158  152  159 1   
   159  152  160 1   
   160  153  154 1   
   161  153  161 1   
   162  153  162 1   
   163  154  155 1   
   164  154  156 1   
   165  163  164 1   
   166  163  168 1   
   167  164  165 1   
   168  164  166 1   
   169  164  167 1   
   170  170  171 1   
   171  170  172 1   
   172  173  174 1   
   173  173  175 1   
   174  176  177 1   
   175  176  178 1   
   176  179  180 1   
   177  179  181 1   
   178  182  183 1   
   179  182  184 1   
@<TRIPOS>SUBSTRUCTURE
     1 MOL         1 TEMP              0 ****  ****    0 ROOT
