@<TRIPOS>MOLECULE
MOL
  184   179     1     0     0
SMALL
resp


@<TRIPOS>ATOM
      1 C1          7.0540    6.8370   -4.2900 c3        1 MOL     -0.256453
      2 C2          6.5780    5.3340   -4.4110 c         1 MOL      0.659966
      3 O1          5.7690    5.0670   -5.2810 o         1 MOL     -0.569774
      4 H1          7.4430    7.0140   -3.2870 hc        1 MOL      0.059545
      5 H2          7.8370    7.0310   -5.0230 hc        1 MOL      0.059545
      6 H3          6.2100    7.5020   -4.4740 hc        1 MOL      0.059545
      7 N1          6.8540    4.4280   -3.4640 n         1 MOL     -0.659026
      8 C3          8.0060    4.4010   -2.5620 c3        1 MOL      0.470840
      9 C4          7.6350    4.6190   -1.0620 c         1 MOL      0.642992
     10 O2          6.5150    4.6000   -0.6350 o         1 MOL     -0.557511
     11 C5          8.8390    3.1780   -2.7630 c3        1 MOL     -0.296966
     12 C6          8.3700    1.8350   -2.2020 c         1 MOL      0.565884
     13 O3          8.5420    1.6560   -0.9340 o         1 MOL     -0.633376
     14 O4          7.7650    0.9370   -2.8740 o         1 MOL     -0.633376
     15 H4          6.2090    3.6630   -3.5310 hn        1 MOL      0.383395
     16 H5          8.6010    5.2820   -2.8030 h1        1 MOL     -0.061393
     17 H6          9.7400    3.3900   -2.1870 hc        1 MOL      0.037718
     18 H7          8.8810    2.9640   -3.8320 hc        1 MOL      0.037718
     19 N2          8.6260    4.5930   -0.2150 n         1 MOL     -0.855564
     20 C7          8.6730    4.7450    1.2610 c3        1 MOL      0.701079
     21 C8          7.8500    3.7490    2.1110 c         1 MOL      0.343133
     22 O5          7.7660    3.9630    3.3130 o         1 MOL     -0.596082
     23 C9          8.4570    6.1580    1.6870 c3        1 MOL     -0.381619
     24 H8          9.5530    4.4990   -0.5930 hn        1 MOL      0.328903
     25 H9          9.6990    4.5160    1.5510 h1        1 MOL     -0.077828
     26 H10         8.6700    6.1760    2.7550 hc        1 MOL      0.082488
     27 H11         9.1640    6.7840    1.1320 hc        1 MOL      0.082488
     28 H12         7.4180    6.3710    1.4270 hc        1 MOL      0.082488
     29 N3          7.2510    2.7350    1.5550 n         1 MOL     -0.273857
     30 C10         6.2890    1.8250    2.1970 c3        1 MOL      0.290989
     31 C11         6.9290    0.5060    2.5300 c         1 MOL      0.351727
     32 O6          7.6320   -0.0880    1.6770 o         1 MOL     -0.550437
     33 C12         4.9780    1.8780    1.3650 c3        1 MOL     -0.287717
     34 C13         5.0690    1.2640    0.0200 c         1 MOL      0.836904
     35 O7          4.1490    1.6790   -0.7540 o         1 MOL     -0.701858
     36 O8          5.7310    0.2790   -0.3330 o         1 MOL     -0.701858
     37 H13         7.4530    2.6560    0.5710 hn        1 MOL      0.116447
     38 H14         6.0550    2.2340    3.1800 h1        1 MOL      0.009367
     39 H15         4.6010    2.9000    1.3530 hc        1 MOL      0.075643
     40 H16         4.1970    1.4040    1.9620 hc        1 MOL      0.075643
     41 N4          6.7550   -0.0920    3.6920 n         1 MOL     -0.287780
     42 C14         7.2030   -1.4290    4.0710 c3        1 MOL     -0.077321
     43 C15         6.2390   -2.5330    3.5420 c         1 MOL      0.520083
     44 O9          6.6380   -3.5080    2.8790 o         1 MOL     -0.549295
     45 H17         6.2310    0.4130    4.3870 hn        1 MOL      0.226129
     46 H18         7.2450   -1.5170    5.1510 h1        1 MOL      0.094115
     47 H19         8.2350   -1.6530    3.8300 h1        1 MOL      0.094115
     48 N5          4.9690   -2.3840    3.8430 n         1 MOL     -0.530075
     49 C16         3.8770   -3.3140    3.5220 c3        1 MOL      0.558514
     50 C17         3.3280   -3.2120    2.0730 c         1 MOL      0.331869
     51 O10         3.2100   -2.0910    1.5740 o         1 MOL     -0.509881
     52 C18         2.8470   -3.2860    4.7050 c3        1 MOL     -0.545353
     53 C19         1.5550   -4.1100    4.3780 c         1 MOL      0.661732
     54 N6          0.3720   -3.4680    4.2850 n         1 MOL     -0.710305
     55 O11         1.5820   -5.2780    4.1210 o         1 MOL     -0.512293
     56 H20         4.6850   -1.4480    4.0930 hn        1 MOL      0.280663
     57 H21         4.3000   -4.3140    3.6490 h1        1 MOL     -0.031896
     58 H22         2.6680   -2.2670    5.0540 hc        1 MOL      0.125484
     59 H23         3.3350   -3.8100    5.5250 hc        1 MOL      0.125484
     60 H24         0.3540   -2.4780    4.5100 hn        1 MOL      0.350012
     61 H25        -0.5080   -3.9610    4.3480 hn        1 MOL      0.350012
     62 N7          2.8740   -4.2980    1.4360 n         1 MOL     -0.181792
     63 C20         2.2840   -4.2710    0.0910 c3        1 MOL     -0.086097
     64 C21         1.3810   -5.4790   -0.1680 c         1 MOL      0.350772
     65 O12         1.2700   -6.3960    0.5980 o         1 MOL     -0.491964
     66 H26         3.0770   -5.2110    1.8000 hn        1 MOL      0.164438
     67 H27         3.0890   -4.2370   -0.6410 h1        1 MOL      0.140470
     68 H28         1.7180   -3.3440   -0.0050 h1        1 MOL      0.140470
     69 N8          0.4030   -5.3720   -1.0350 n         1 MOL     -0.123541
     70 C22         0.1080   -4.2640   -2.0080 c3        1 MOL     -0.521687
     71 C23        -1.1690   -3.5660   -1.7060 c         1 MOL      0.784206
     72 O13        -2.2330   -4.2170   -1.5270 o         1 MOL     -0.555772
     73 C24         0.0260   -4.9360   -3.4440 c3        1 MOL      0.475470
     74 C25         1.3620   -5.2260   -4.0180 c3        1 MOL     -0.595076
     75 O14        -0.8140   -6.1290   -3.4380 oh        1 MOL     -0.593222
     76 H29        -0.0810   -6.2430   -1.2090 hn        1 MOL      0.216951
     77 H30         0.8990   -3.5160   -2.0810 h1        1 MOL      0.089558
     78 H31        -0.4000   -4.1290   -4.0450 h1        1 MOL      0.076412
     79 H32        -0.3660   -6.7950   -2.8970 ho        1 MOL      0.395670
     80 H33         1.2290   -5.3620   -5.1010 hc        1 MOL      0.152566
     81 H34         2.0470   -4.4020   -3.8430 hc        1 MOL      0.152566
     82 H35         1.8010   -6.0770   -3.4950 hc        1 MOL      0.152566
     83 N9         -1.1530   -2.2740   -1.6230 n         1 MOL     -0.531923
     84 C26        -2.3210   -1.3530   -1.5770 c3        1 MOL     -0.034387
     85 C27        -3.0590   -1.4510   -3.0010 c         1 MOL      0.699389
     86 O15        -2.3510   -1.5260   -3.9510 o         1 MOL     -0.633716
     87 C28        -1.9510    0.0620   -1.1910 c3        1 MOL      0.033882
     88 C29        -1.3590    0.1370    0.2150 c3        1 MOL      0.141780
     89 C30        -3.1460    1.0670   -1.2220 c3        1 MOL     -0.215507
     90 C31        -2.1440   -0.6410    1.3270 c3        1 MOL     -0.350501
     91 H36        -0.2240   -1.8820   -1.7220 hn        1 MOL      0.326718
     92 H37        -3.0120   -1.8530   -0.8950 h1        1 MOL      0.122268
     93 H38        -1.1650    0.4130   -1.8600 hc        1 MOL      0.042136
     94 H39        -1.1520    1.1350    0.6040 hc        1 MOL     -0.034292
     95 H40        -0.3960   -0.3470    0.0940 hc        1 MOL     -0.034292
     96 H41        -3.6780    0.8900   -2.1580 hc        1 MOL      0.049622
     97 H42        -3.8290    0.9290   -0.3870 hc        1 MOL      0.049622
     98 H43        -2.7110    2.0580   -1.1220 hc        1 MOL      0.049622
     99 H44        -1.8180   -1.6920    1.3290 hc        1 MOL      0.088350
    100 H45        -2.0210   -0.2750    2.3490 hc        1 MOL      0.088350
    101 H46        -3.2110   -0.6000    1.1090 hc        1 MOL      0.088350
    102 N10        -4.3520   -1.5770   -3.2120 n         1 MOL     -0.561486
    103 C32        -5.3820   -1.7760   -2.1950 c3        1 MOL      0.287636
    104 C33        -6.6660   -0.8990   -2.3780 c         1 MOL      0.573307
    105 O16        -6.9580   -0.3220   -3.3950 o         1 MOL     -0.594219
    106 C34        -5.8030   -3.2950   -2.2490 c3        1 MOL     -0.347428
    107 C35        -6.3040   -4.0410   -1.0390 c         1 MOL      0.725041
    108 O17        -6.3950   -3.4600    0.0650 o         1 MOL     -0.664147
    109 O18        -6.8140   -5.1740   -1.1820 o         1 MOL     -0.664147
    110 H47        -4.5340   -1.5490   -4.2020 hn        1 MOL      0.308457
    111 H48        -5.0150   -1.5050   -1.2030 h1        1 MOL     -0.019849
    112 H49        -4.9430   -3.8610   -2.6150 hc        1 MOL      0.072865
    113 H50        -6.5290   -3.4140   -3.0550 hc        1 MOL      0.072865
    114 N11        -7.5360   -0.9510   -1.3490 n         1 MOL     -0.498367
    115 C36        -8.7050   -0.1130   -1.1030 c3        1 MOL      0.330754
    116 C37        -9.3280   -0.4660    0.1710 c         1 MOL      0.295020
    117 O19        -9.9020   -1.5840    0.3200 o         1 MOL     -0.497749
    118 C38        -9.7670   -0.1250   -2.1710 c3        1 MOL     -0.217862
    119 C39       -10.7700    0.9510   -1.8920 ca        1 MOL      0.049119
    120 C40       -11.9520    0.6170   -1.2280 ca        1 MOL     -0.172146
    121 C41       -10.5400    2.2770   -2.2990 ca        1 MOL     -0.172146
    122 C42       -12.9950    1.6420   -0.9930 ca        1 MOL     -0.047416
    123 C43       -11.5150    3.1850   -2.2140 ca        1 MOL     -0.047416
    124 C44       -12.7390    2.8820   -1.6020 ca        1 MOL     -0.200615
    125 H51        -7.2730   -1.5640   -0.5860 hn        1 MOL      0.286808
    126 H52        -8.3150    0.9060   -1.0870 h1        1 MOL     -0.024241
    127 H53       -10.1890   -1.1200   -2.2910 hc        1 MOL      0.099583
    128 H54        -9.3090    0.1640   -3.1160 hc        1 MOL      0.099583
    129 H55       -12.1610   -0.4120   -0.9610 ha        1 MOL      0.121262
    130 H56        -9.6450    2.5230   -2.8530 ha        1 MOL      0.121262
    131 H57       -13.9520    1.3990   -0.5440 ha        1 MOL      0.083737
    132 H58       -11.3050    4.1140   -2.7340 ha        1 MOL      0.083737
    133 H59       -13.5090    3.6410   -1.6450 ha        1 MOL      0.094099
    134 N12        -9.4940    0.4250    1.1910 n         1 MOL     -0.077587
    135 C45        -8.8560    1.7220    1.3240 c3        1 MOL      0.734346
    136 C46        -7.3110    1.7040    1.2630 c         1 MOL      0.014529
    137 O20        -6.5770    0.7410    1.0030 o         1 MOL     -0.428296
    138 C47        -9.5480    2.3610    2.5270 c3        1 MOL     -0.344759
    139 C48       -10.9050    1.6110    2.6860 c3        1 MOL      0.257121
    140 C49       -10.5020    0.2270    2.2550 c3        1 MOL     -0.325120
    141 H60        -9.2470    2.2760    0.4610 h1        1 MOL     -0.142174
    142 H61        -8.9660    2.1410    3.4200 hc        1 MOL      0.068044
    143 H62        -9.6710    3.4310    2.3910 hc        1 MOL      0.068044
    144 H63       -11.3110    1.7140    3.6930 hc        1 MOL     -0.052238
    145 H64       -11.5530    2.0330    1.9230 hc        1 MOL     -0.052238
    146 H65        -9.9390   -0.2110    3.0780 h1        1 MOL      0.134707
    147 H66       -11.4000   -0.2510    1.8590 h1        1 MOL      0.134707
    148 N13        -6.7660    2.9100    1.4150 n         1 MOL     -0.207919
    149 C50        -5.3210    3.2330    1.2870 c3        1 MOL      0.165465
    150 C51        -5.0630    4.7050    1.0310 c         1 MOL      0.334965
    151 O21        -4.0490    5.2700    1.3990 o         1 MOL     -0.501407
    152 C52        -4.4690    2.5800    2.4480 c3        1 MOL     -0.259106
    153 C53        -4.8420    3.1790    3.8090 c3        1 MOL     -0.134190
    154 C54        -6.1670    2.7240    4.3820 c         1 MOL      0.793812
    155 O22        -6.9650    3.5850    4.8930 o         1 MOL     -0.709706
    156 O23        -6.3440    1.4930    4.6640 o         1 MOL     -0.709706
    157 H67        -7.3070    3.7390    1.6180 hn        1 MOL      0.143590
    158 H68        -4.9220    2.8300    0.3540 h1        1 MOL      0.088197
    159 H69        -3.4030    2.5610    2.2390 hc        1 MOL      0.144166
    160 H70        -4.8220    1.5530    2.4040 hc        1 MOL      0.144166
    161 H71        -4.8170    4.2810    3.8330 hc        1 MOL      0.008836
    162 H72        -4.1170    2.8680    4.5540 hc        1 MOL      0.008836
    163 N14        -5.9400    5.3940    0.2660 n         1 MOL     -0.247758
    164 C55        -6.7910    5.0050   -0.8460 c3        1 MOL     -0.104903
    165 H73        -6.4470    4.0520   -1.2500 h1        1 MOL      0.057453
    166 H74        -7.8190    4.9020   -0.4990 h1        1 MOL      0.057453
    167 H75        -6.7440    5.7670   -1.6240 h1        1 MOL      0.057453
    168 H76        -5.7180    6.3750    0.2370 hn        1 MOL      0.230150
    169 Ca1         7.9280   -1.0180   -0.9360 Ca        1 MOL      1.595671
    170 O24         8.8770   -2.9780   -2.3620 oh        1 MOL     -0.688520
    171 O25         9.2060   -2.5980    0.7300 oh        1 MOL     -0.688520
    172 H77         8.5970   -3.8450   -2.6520 ho        1 MOL      0.320990
    173 H78        10.1620   -2.6050    0.7350 ho        1 MOL      0.320990
    174 H79         9.8350   -3.0080   -2.4020 ho        1 MOL      0.320990
    175 H80         8.9680   -3.5240    0.5840 ho        1 MOL      0.320990
    176 O26         6.4220   -3.0120    0.1540 oh        1 MOL     -0.688520
    177 H81         6.7710   -3.3910    0.9600 ho        1 MOL      0.320990
    178 H82         6.1230   -3.7680   -0.3510 ho        1 MOL      0.320990
    179 O27        10.6340   -1.0140   -1.1780 oh        1 MOL     -0.688520
    180 H83        10.9660   -1.9100   -1.1990 ho        1 MOL      0.320990
    181 H84        11.4090   -0.4720   -1.3160 ho        1 MOL      0.320990
    182 O28         6.2670   -1.9300   -2.7990 oh        1 MOL     -0.688520
    183 H85         5.3940   -2.0150   -2.4160 ho        1 MOL      0.320990
    184 H86         6.1190   -1.9570   -3.7470 ho        1 MOL      0.320990
@<TRIPOS>BOND
     1    1    2 1   
     2    1    4 1   
     3    1    5 1   
     4    1    6 1   
     5    2    3 2   
     6    2    7 1   
     7    7    8 1   
     8    7   15 1   
     9    8    9 1   
    10    8   11 1   
    11    8   16 1   
    12    9   10 2   
    13    9   19 1   
    14   11   12 1   
    15   11   17 1   
    16   11   18 1   
    17   12   13 1   
    18   12   14 1   
    19   19   20 1   
    20   19   24 1   
    21   20   21 1   
    22   20   23 1   
    23   20   25 1   
    24   21   22 2   
    25   21   29 1   
    26   23   26 1   
    27   23   27 1   
    28   23   28 1   
    29   29   30 1   
    30   29   37 1   
    31   30   31 1   
    32   30   33 1   
    33   30   38 1   
    34   31   32 2   
    35   31   41 1   
    36   33   34 1   
    37   33   39 1   
    38   33   40 1   
    39   34   35 1   
    40   34   36 1   
    41   41   42 1   
    42   41   45 1   
    43   42   43 1   
    44   42   46 1   
    45   42   47 1   
    46   43   44 2   
    47   43   48 1   
    48   48   49 1   
    49   48   56 1   
    50   49   50 1   
    51   49   52 1   
    52   49   57 1   
    53   50   51 2   
    54   50   62 1   
    55   52   53 1   
    56   52   58 1   
    57   52   59 1   
    58   53   54 1   
    59   53   55 2   
    60   54   60 1   
    61   54   61 1   
    62   62   63 1   
    63   62   66 1   
    64   63   64 1   
    65   63   67 1   
    66   63   68 1   
    67   64   65 2   
    68   64   69 1   
    69   69   70 1   
    70   69   76 1   
    71   70   71 1   
    72   70   73 1   
    73   70   77 1   
    74   71   72 2   
    75   71   83 1   
    76   73   74 1   
    77   73   75 1   
    78   73   78 1   
    79   74   80 1   
    80   74   81 1   
    81   74   82 1   
    82   75   79 1   
    83   83   84 1   
    84   83   91 1   
    85   84   85 1   
    86   84   87 1   
    87   84   92 1   
    88   85   86 2   
    89   85  102 1   
    90   87   88 1   
    91   87   89 1   
    92   87   93 1   
    93   88   90 1   
    94   88   94 1   
    95   88   95 1   
    96   89   96 1   
    97   89   97 1   
    98   89   98 1   
    99   90   99 1   
   100   90  100 1   
   101   90  101 1   
   102  102  103 1   
   103  102  110 1   
   104  103  104 1   
   105  103  106 1   
   106  103  111 1   
   107  104  105 2   
   108  104  114 1   
   109  106  107 1   
   110  106  112 1   
   111  106  113 1   
   112  107  108 1   
   113  107  109 1   
   114  114  115 1   
   115  114  125 1   
   116  115  116 1   
   117  115  118 1   
   118  115  126 1   
   119  116  117 2   
   120  116  134 1   
   121  118  119 1   
   122  118  127 1   
   123  118  128 1   
   124  119  120 ar  
   125  119  121 ar  
   126  120  122 ar  
   127  120  129 1   
   128  121  123 ar  
   129  121  130 1   
   130  122  124 ar  
   131  122  131 1   
   132  123  124 ar  
   133  123  132 1   
   134  124  133 1   
   135  134  135 1   
   136  134  140 1   
   137  135  136 1   
   138  135  138 1   
   139  135  141 1   
   140  136  137 2   
   141  136  148 1   
   142  138  139 1   
   143  138  142 1   
   144  138  143 1   
   145  139  140 1   
   146  139  144 1   
   147  139  145 1   
   148  140  146 1   
   149  140  147 1   
   150  148  149 1   
   151  148  157 1   
   152  149  150 1   
   153  149  152 1   
   154  149  158 1   
   155  150  151 2   
   156  150  163 1   
   157  152  153 1   
   158  152  159 1   
   159  152  160 1   
   160  153  154 1   
   161  153  161 1   
   162  153  162 1   
   163  154  155 1   
   164  154  156 1   
   165  163  164 1   
   166  163  168 1   
   167  164  165 1   
   168  164  166 1   
   169  164  167 1   
   170  170  172 1   
   171  170  174 1   
   172  171  173 1   
   173  171  175 1   
   174  176  177 1   
   175  176  178 1   
   176  179  180 1   
   177  179  181 1   
   178  182  183 1   
   179  182  184 1   
@<TRIPOS>SUBSTRUCTURE
     1 MOL         1 TEMP              0 ****  ****    0 ROOT
