@<TRIPOS>MOLECULE
MOL
  181   177     1     0     0
SMALL
resp


@<TRIPOS>ATOM
      1 C1         -0.0370    7.3700   -2.5740 c3        1 MOL     -0.491054
      2 C2          1.1730    7.1860   -1.6970 c         1 MOL      0.744141
      3 O1          1.2560    7.5920   -0.5440 o         1 MOL     -0.626789
      4 H1         -0.0810    8.4040   -2.9180 hc        1 MOL      0.122321
      5 H2          0.0330    6.7040   -3.4350 hc        1 MOL      0.122321
      6 H3         -0.9370    7.1370   -2.0060 hc        1 MOL      0.122321
      7 N1          2.1760    6.4060   -2.1190 n         1 MOL     -0.564723
      8 C3          3.5050    6.2490   -1.4360 c3        1 MOL      0.143827
      9 C4          3.5530    5.0980   -0.4760 c         1 MOL      0.570278
     10 O2          3.4550    3.9120   -0.8240 o         1 MOL     -0.587204
     11 C5          4.6270    6.2850   -2.4880 c3        1 MOL     -0.136731
     12 C6          5.8110    6.5990   -1.6270 c         1 MOL      0.632333
     13 O3          6.4450    5.5970   -1.1890 o         1 MOL     -0.715396
     14 O4          6.0400    7.8050   -1.2880 o         1 MOL     -0.715396
     15 H4          2.0530    5.9600   -3.0130 hn        1 MOL      0.275520
     16 H5          3.7170    7.1380   -0.8340 h1        1 MOL      0.051991
     17 H6          4.4700    7.0770   -3.2370 hc        1 MOL      0.012785
     18 H7          4.8140    5.3430   -2.9940 hc        1 MOL      0.012785
     19 N2          3.9520    5.4480    0.7440 n         1 MOL     -0.516467
     20 C7          4.3150    4.4390    1.7620 c3        1 MOL      0.410718
     21 C8          3.0690    3.6480    2.3030 c         1 MOL      0.248451
     22 O5          1.9290    4.0980    2.0480 o         1 MOL     -0.501035
     23 C9          5.1050    5.1300    2.9370 c3        1 MOL     -0.228767
     24 H8          3.7790    6.3780    1.1010 hn        1 MOL      0.318896
     25 H9          5.0650    3.7880    1.2960 h1        1 MOL      0.092618
     26 H10         5.6630    4.4290    3.5610 hc        1 MOL      0.042895
     27 H11         5.7270    5.9180    2.5280 hc        1 MOL      0.042895
     28 H12         4.3880    5.6110    3.6090 hc        1 MOL      0.042895
     29 N3          3.2080    2.5540    3.0720 n         1 MOL     -0.314623
     30 C10         4.3380    1.6980    3.4650 c3        1 MOL      0.004477
     31 C11         4.7590    0.8370    2.2000 c         1 MOL      0.230847
     32 O6          4.3080    1.0610    1.0840 o         1 MOL     -0.298037
     33 C12         3.7430    0.8800    4.6580 c3        1 MOL     -0.260265
     34 C13         2.4010    0.1360    4.4210 c         1 MOL      0.652142
     35 O7          1.6840    0.3160    3.3760 o         1 MOL     -0.633912
     36 O8          1.8640   -0.5380    5.3450 o         1 MOL     -0.633912
     37 H13         2.3710    2.0590    3.3480 hn        1 MOL      0.277734
     38 H14         5.1390    2.3380    3.8260 h1        1 MOL      0.096001
     39 H15         3.5770    1.5620    5.4910 hc        1 MOL      0.054106
     40 H16         4.4750    0.1380    4.9560 hc        1 MOL      0.054106
     41 N4          5.5760   -0.1680    2.4300 n         1 MOL     -0.408660
     42 C14         6.1970   -1.0520    1.4380 c3        1 MOL     -0.043037
     43 C15         7.2150   -0.3120    0.5280 c         1 MOL      0.428666
     44 O9          7.3630    0.8990    0.4590 o         1 MOL     -0.426496
     45 H17         5.8390   -0.3150    3.3970 hn        1 MOL      0.319222
     46 H18         5.5540   -1.6520    0.8060 h1        1 MOL      0.082438
     47 H19         6.7650   -1.8160    1.9840 h1        1 MOL      0.082438
     48 N5          7.8350   -0.9990   -0.4110 n         1 MOL     -0.540166
     49 C16         7.5210   -2.3580   -0.9970 c3        1 MOL      0.364886
     50 C17         6.2050   -2.3440   -1.7450 c         1 MOL      0.396251
     51 O10         5.5520   -1.2750   -1.9260 o         1 MOL     -0.451600
     52 C18         8.8080   -2.7390   -1.8220 c3        1 MOL     -0.409780
     53 C19         8.8100   -4.2500   -2.1680 c         1 MOL      0.675785
     54 N6          9.3600   -4.6500   -3.2880 n         1 MOL     -0.752075
     55 O11         8.1590   -5.0470   -1.4880 o         1 MOL     -0.561793
     56 H20         8.6350   -0.5130   -0.8020 hn        1 MOL      0.313067
     57 H21         7.4330   -3.0750   -0.1920 h1        1 MOL     -0.020018
     58 H22         9.6880   -2.6870   -1.1820 hc        1 MOL      0.121808
     59 H23         9.0310   -2.1260   -2.7010 hc        1 MOL      0.121808
     60 H24         9.9430   -4.0010   -3.8010 hn        1 MOL      0.359905
     61 H25         9.4690   -5.6430   -3.4610 hn        1 MOL      0.359905
     62 N7          5.7260   -3.5230   -2.2190 n         1 MOL     -0.371151
     63 C20         4.5770   -3.7210   -3.1600 c3        1 MOL     -0.110586
     64 C21         3.2890   -4.3620   -2.6510 c         1 MOL      0.558523
     65 O12         2.4070   -4.5880   -3.4830 o         1 MOL     -0.563425
     66 H26         6.3270   -4.3080   -2.0460 hn        1 MOL      0.274194
     67 H27         4.9840   -4.3520   -3.9530 h1        1 MOL      0.102209
     68 H28         4.3510   -2.7320   -3.5420 h1        1 MOL      0.102209
     69 N8          3.0580   -4.5670   -1.3280 n         1 MOL     -0.260577
     70 C22         1.7850   -5.1170   -0.7640 c3        1 MOL     -0.287721
     71 C23         0.6520   -4.0610   -0.7040 c         1 MOL      0.593708
     72 O13         0.9190   -2.8650   -0.4790 o         1 MOL     -0.552150
     73 C24         1.9560   -5.8040    0.5940 c3        1 MOL      0.505916
     74 C25         2.5370   -7.1680    0.4940 c3        1 MOL     -0.394897
     75 O14         2.8410   -4.9440    1.3080 oh        1 MOL     -0.616674
     76 H29         3.7650   -4.3390   -0.6360 hn        1 MOL      0.210563
     77 H30         1.3510   -5.7990   -1.4940 h1        1 MOL      0.114693
     78 H31         0.9880   -5.8210    1.0970 h1        1 MOL      0.019679
     79 H32         2.4130   -4.8520    2.1580 ho        1 MOL      0.375266
     80 H33         3.6190   -7.1970    0.6180 hc        1 MOL      0.088443
     81 H34         2.1740   -7.7490    1.3450 hc        1 MOL      0.088443
     82 H35         2.2010   -7.6260   -0.4330 hc        1 MOL      0.088443
     83 N9         -0.5110   -4.5690   -0.9650 n         1 MOL     -0.317679
     84 C26        -1.8010   -3.8610   -1.0390 c3        1 MOL     -0.075635
     85 C27        -2.5140   -3.9120    0.3630 c         1 MOL      0.350236
     86 O15        -2.7080   -5.0060    0.9620 o         1 MOL     -0.549477
     87 C28        -2.7410   -4.2220   -2.2120 c3        1 MOL      0.184508
     88 C29        -3.8940   -3.2230   -2.2010 c3        1 MOL      0.061343
     89 C30        -2.0310   -4.1390   -3.5030 c3        1 MOL     -0.384791
     90 C31        -5.2230   -3.6350   -1.4640 c3        1 MOL     -0.224827
     91 H36        -0.4550   -5.5470   -1.1870 hn        1 MOL      0.227764
     92 H37        -1.4960   -2.8350   -1.2180 h1        1 MOL      0.186721
     93 H38        -3.2190   -5.1880   -2.0370 hc        1 MOL      0.007188
     94 H39        -4.2300   -3.1190   -3.2360 hc        1 MOL     -0.009922
     95 H40        -3.4840   -2.2690   -1.8840 hc        1 MOL     -0.009922
     96 H41        -1.2900   -4.9290   -3.5880 hc        1 MOL      0.090760
     97 H42        -2.7010   -4.2020   -4.3560 hc        1 MOL      0.090760
     98 H43        -1.4250   -3.2400   -3.4100 hc        1 MOL      0.090760
     99 H44        -6.0870   -3.0530   -1.7850 hc        1 MOL      0.043925
    100 H45        -5.4030   -4.7100   -1.5550 hc        1 MOL      0.043925
    101 H46        -5.1830   -3.4510   -0.3920 hc        1 MOL      0.043925
    102 N10        -2.9420   -2.7540    0.9350 n         1 MOL      0.024841
    103 C32        -3.5240   -2.6100    2.3130 c3        1 MOL      0.004006
    104 C33        -4.9010   -1.8870    2.3960 c         1 MOL      0.250447
    105 O16        -5.6210   -2.1580    3.3510 o         1 MOL     -0.501020
    106 C34        -2.5240   -1.9050    3.1860 c3        1 MOL     -0.163453
    107 C35        -1.1730   -2.5630    3.1100 c         1 MOL      0.653584
    108 O17        -0.2470   -1.9970    2.4620 o         1 MOL     -0.688651
    109 O18        -0.9500   -3.6510    3.7180 o         1 MOL     -0.688651
    110 H47        -2.7080   -1.8840    0.4740 hn        1 MOL     -0.043238
    111 H48        -3.6410   -3.6080    2.7490 h1        1 MOL      0.105308
    112 H49        -2.8800   -1.9010    4.2180 hc        1 MOL      0.082392
    113 H50        -2.4440   -0.8730    2.8380 hc        1 MOL      0.082392
    114 N11        -5.3100   -1.1490    1.3380 n         1 MOL     -0.187858
    115 C36        -6.5710   -0.4680    1.1020 c3        1 MOL      0.460336
    116 C37        -6.4750    1.0090    0.5350 c         1 MOL      0.113366
    117 O19        -7.0070    1.3110   -0.5070 o         1 MOL     -0.407497
    118 C38        -7.5030   -1.3180    0.2110 c3        1 MOL     -0.301818
    119 C39        -8.9880   -1.0440    0.1940 ca        1 MOL      0.158060
    120 C40        -9.7280   -1.5430   -0.8670 ca        1 MOL     -0.164895
    121 C41        -9.6220   -0.3310    1.2370 ca        1 MOL     -0.164895
    122 C42       -11.1150   -1.2670   -0.9120 ca        1 MOL     -0.130136
    123 C43       -11.0010   -0.0850    1.1950 ca        1 MOL     -0.130136
    124 C44       -11.7390   -0.5130    0.0910 ca        1 MOL     -0.122050
    125 H51        -4.6100   -0.9990    0.6270 hn        1 MOL      0.243375
    126 H52        -7.0460   -0.5230    2.0820 h1        1 MOL     -0.048607
    127 H53        -7.3950   -2.3550    0.5280 hc        1 MOL      0.084854
    128 H54        -7.2220   -1.2520   -0.8430 hc        1 MOL      0.084854
    129 H55        -9.3360   -2.0060   -1.7550 ha        1 MOL      0.118873
    130 H56        -8.9960    0.1860    1.9490 ha        1 MOL      0.118873
    131 H57       -11.6200   -1.5220   -1.8340 ha        1 MOL      0.103857
    132 H58       -11.5660    0.4160    1.9780 ha        1 MOL      0.103857
    133 H59       -12.7830   -0.2410    0.0360 ha        1 MOL      0.093993
    134 N12        -5.6170    1.8310    1.1150 n         1 MOL      0.061481
    135 C45        -5.3070    3.2140    0.6700 c3        1 MOL     -0.075724
    136 C46        -4.7860    3.3840   -0.8220 c         1 MOL      0.243602
    137 O20        -4.9100    4.4500   -1.4330 o         1 MOL     -0.463478
    138 C47        -4.2980    3.7340    1.7270 c3        1 MOL      0.027451
    139 C48        -4.6710    3.0020    3.0330 c3        1 MOL     -0.226662
    140 C49        -4.9640    1.6220    2.4020 c3        1 MOL     -0.113622
    141 H60        -6.2240    3.7920    0.7950 h1        1 MOL      0.092440
    142 H61        -3.2440    3.5890    1.4870 hc        1 MOL      0.054984
    143 H62        -4.4210    4.8140    1.8060 hc        1 MOL      0.054984
    144 H63        -3.8090    3.2070    3.6750 hc        1 MOL      0.089026
    145 H64        -5.5320    3.6000    3.3070 hc        1 MOL      0.089026
    146 H65        -4.0090    1.1250    2.2130 h1        1 MOL      0.090057
    147 H66        -5.7060    1.1200    3.0210 h1        1 MOL      0.090057
    148 N13        -4.3090    2.2440   -1.3680 n         1 MOL     -0.180536
    149 C50        -4.0110    2.1520   -2.8320 c3        1 MOL     -0.032528
    150 C51        -5.2370    2.3270   -3.7670 c         1 MOL      0.403625
    151 O21        -5.1970    2.8450   -4.8640 o         1 MOL     -0.544687
    152 C52        -3.3300    0.8150   -3.0800 c3        1 MOL     -0.024690
    153 C53        -2.0190    0.6000   -2.3420 c3        1 MOL     -0.055419
    154 C54        -2.0210   -0.0630   -0.9500 c         1 MOL      0.730022
    155 O22        -0.9050   -0.3560   -0.4700 o         1 MOL     -0.784086
    156 O23        -3.0930   -0.2370   -0.3210 o         1 MOL     -0.784086
    157 H67        -4.1310    1.4210   -0.8100 hn        1 MOL      0.245256
    158 H68        -3.3390    2.9570   -3.1430 h1        1 MOL      0.096030
    159 H69        -3.1270    0.7530   -4.1550 hc        1 MOL      0.001969
    160 H70        -4.0130    0.0040   -2.8400 hc        1 MOL      0.001969
    161 H71        -1.4780    1.5420   -2.2900 hc        1 MOL      0.034392
    162 H72        -1.3530   -0.0300   -2.9340 hc        1 MOL      0.034392
    163 N14        -6.3930    1.9520   -3.2310 n         1 MOL     -0.029500
    164 C55        -7.7390    1.9680   -3.7920 c3        1 MOL     -0.269205
    165 H73        -7.9250    2.9330   -4.2630 h1        1 MOL      0.093185
    166 H74        -7.8320    1.1770   -4.5380 h1        1 MOL      0.093185
    167 H75        -8.4680    1.8060   -2.9970 h1        1 MOL      0.093185
    168 H76        -6.4300    1.6480   -2.2720 hn        1 MOL      0.112068
    169 Ca1         1.1580   -0.4690    1.0720 Ca        1 MOL      1.750389
    170 O24         2.8430   -0.9230   -0.8490 oh        1 MOL     -0.831695
    171 H77         3.7900   -0.8070   -0.9830 ho        1 MOL      0.400193
    172 H78         2.5500   -1.4140   -1.6160 ho        1 MOL      0.400193
    173 O25         1.5840    1.9700    0.1500 oh        1 MOL     -0.831695
    174 H79         2.3790    2.2440   -0.3010 ho        1 MOL      0.400193
    175 H80         1.1120    2.7920    0.3240 ho        1 MOL      0.400193
    176 O26         2.9350   -2.2530    2.2240 oh        1 MOL     -0.831695
    177 H81         2.5140   -3.0130    2.6250 ho        1 MOL      0.400193
    178 H82         3.8390   -2.2740    2.5420 ho        1 MOL      0.400193
    179 O27        -1.4520    1.2170    1.9810 oh        1 MOL     -0.831695
    180 H83        -1.8870    0.7320    1.2730 ho        1 MOL      0.400193
    181 H84        -1.3570    2.1070    1.6400 ho        1 MOL      0.400193
@<TRIPOS>BOND
     1    1    2 1   
     2    1    4 1   
     3    1    5 1   
     4    1    6 1   
     5    2    3 2   
     6    2    7 1   
     7    7    8 1   
     8    7   15 1   
     9    8    9 1   
    10    8   11 1   
    11    8   16 1   
    12    9   10 2   
    13    9   19 1   
    14   11   12 1   
    15   11   17 1   
    16   11   18 1   
    17   12   13 1   
    18   12   14 1   
    19   19   20 1   
    20   19   24 1   
    21   20   21 1   
    22   20   23 1   
    23   20   25 1   
    24   21   22 2   
    25   21   29 1   
    26   23   26 1   
    27   23   27 1   
    28   23   28 1   
    29   29   30 1   
    30   29   37 1   
    31   30   31 1   
    32   30   33 1   
    33   30   38 1   
    34   31   32 2   
    35   31   41 1   
    36   33   34 1   
    37   33   39 1   
    38   33   40 1   
    39   34   35 1   
    40   34   36 1   
    41   41   42 1   
    42   41   45 1   
    43   42   43 1   
    44   42   46 1   
    45   42   47 1   
    46   43   44 2   
    47   43   48 1   
    48   48   49 1   
    49   48   56 1   
    50   49   50 1   
    51   49   52 1   
    52   49   57 1   
    53   50   51 2   
    54   50   62 1   
    55   52   53 1   
    56   52   58 1   
    57   52   59 1   
    58   53   54 1   
    59   53   55 2   
    60   54   60 1   
    61   54   61 1   
    62   62   63 1   
    63   62   66 1   
    64   63   64 1   
    65   63   67 1   
    66   63   68 1   
    67   64   65 2   
    68   64   69 1   
    69   69   70 1   
    70   69   76 1   
    71   70   71 1   
    72   70   73 1   
    73   70   77 1   
    74   71   72 2   
    75   71   83 1   
    76   73   74 1   
    77   73   75 1   
    78   73   78 1   
    79   74   80 1   
    80   74   81 1   
    81   74   82 1   
    82   75   79 1   
    83   83   84 1   
    84   83   91 1   
    85   84   85 1   
    86   84   87 1   
    87   84   92 1   
    88   85   86 2   
    89   85  102 1   
    90   87   88 1   
    91   87   89 1   
    92   87   93 1   
    93   88   90 1   
    94   88   94 1   
    95   88   95 1   
    96   89   96 1   
    97   89   97 1   
    98   89   98 1   
    99   90   99 1   
   100   90  100 1   
   101   90  101 1   
   102  102  103 1   
   103  102  110 1   
   104  103  104 1   
   105  103  106 1   
   106  103  111 1   
   107  104  105 2   
   108  104  114 1   
   109  106  107 1   
   110  106  112 1   
   111  106  113 1   
   112  107  108 1   
   113  107  109 1   
   114  114  115 1   
   115  114  125 1   
   116  115  116 1   
   117  115  118 1   
   118  115  126 1   
   119  116  117 2   
   120  116  134 1   
   121  118  119 1   
   122  118  127 1   
   123  118  128 1   
   124  119  120 ar  
   125  119  121 ar  
   126  120  122 ar  
   127  120  129 1   
   128  121  123 ar  
   129  121  130 1   
   130  122  124 ar  
   131  122  131 1   
   132  123  124 ar  
   133  123  132 1   
   134  124  133 1   
   135  134  135 1   
   136  134  140 1   
   137  135  136 1   
   138  135  138 1   
   139  135  141 1   
   140  136  137 2   
   141  136  148 1   
   142  138  139 1   
   143  138  142 1   
   144  138  143 1   
   145  139  140 1   
   146  139  144 1   
   147  139  145 1   
   148  140  146 1   
   149  140  147 1   
   150  148  149 1   
   151  148  157 1   
   152  149  150 1   
   153  149  152 1   
   154  149  158 1   
   155  150  151 2   
   156  150  163 1   
   157  152  153 1   
   158  152  159 1   
   159  152  160 1   
   160  153  154 1   
   161  153  161 1   
   162  153  162 1   
   163  154  155 1   
   164  154  156 1   
   165  163  164 1   
   166  163  168 1   
   167  164  165 1   
   168  164  166 1   
   169  164  167 1   
   170  170  171 1   
   171  170  172 1   
   172  173  174 1   
   173  173  175 1   
   174  176  177 1   
   175  176  178 1   
   176  179  180 1   
   177  179  181 1   
@<TRIPOS>SUBSTRUCTURE
     1 MOL         1 TEMP              0 ****  ****    0 ROOT
