@<TRIPOS>MOLECULE
MOL
  179   176     1     0     0
SMALL
resp


@<TRIPOS>ATOM
      1 C1          0.3810   -4.0610    5.5710 c3        1 MOL     -0.418312
      2 C2          0.4810   -3.8630    4.0770 c         1 MOL      0.826531
      3 O1         -0.4420   -4.0640    3.3220 o         1 MOL     -0.620419
      4 H1         -0.6180   -3.7810    5.9070 hc        1 MOL      0.118704
      5 H2          0.5650   -5.1080    5.8130 hc        1 MOL      0.118704
      6 H3          1.1210   -3.4360    6.0720 hc        1 MOL      0.118704
      7 N1          1.6500   -3.3690    3.6500 n         1 MOL     -0.665926
      8 C3          1.9310   -3.0800    2.2570 c3        1 MOL      0.007494
      9 C4          2.0870   -4.3440    1.4470 c         1 MOL      0.639703
     10 O2          2.5550   -5.3880    1.9300 o         1 MOL     -0.552877
     11 C5          3.2710   -2.2570    2.3120 c3        1 MOL     -0.116486
     12 C6          3.3840   -1.3210    1.1490 c         1 MOL      0.546507
     13 O3          3.8910   -0.1620    1.2500 o         1 MOL     -0.692884
     14 O4          3.2960   -1.8100   -0.0200 o         1 MOL     -0.692884
     15 H4          2.3010   -3.0200    4.3330 hn        1 MOL      0.340417
     16 H5          1.1480   -2.4990    1.7710 h1        1 MOL      0.023044
     17 H6          4.1190   -2.9470    2.2510 hc        1 MOL      0.092348
     18 H7          3.3940   -1.7230    3.2450 hc        1 MOL      0.092348
     19 N2          1.8360   -4.2510    0.1370 n         1 MOL     -0.424135
     20 C7          2.1710   -5.3770   -0.8150 c3        1 MOL      0.039169
     21 C8          3.2660   -5.1280   -1.8470 c         1 MOL      0.481216
     22 O5          3.5230   -5.9960   -2.6980 o         1 MOL     -0.560028
     23 C9          0.9600   -5.9480   -1.5370 c3        1 MOL      0.126682
     24 C10        -0.1450   -6.5190   -0.6220 c3        1 MOL     -0.099829
     25 C11        -1.2820   -7.0800   -1.5160 c3        1 MOL     -0.128097
     26 C12        -2.1190   -5.9150   -2.1010 c3        1 MOL      0.025305
     27 N3         -3.2440   -6.4370   -2.8840 n4        1 MOL     -0.332574
     28 H8          1.7580   -3.3770   -0.3590 hn        1 MOL      0.283632
     29 H9          2.6420   -6.1730   -0.2340 h1        1 MOL      0.090903
     30 H10         1.2130   -6.8250   -2.1350 hc        1 MOL     -0.018754
     31 H11         0.5780   -5.1820   -2.2150 hc        1 MOL     -0.018754
     32 H12        -0.5210   -5.6860   -0.0160 hc        1 MOL      0.057748
     33 H13         0.3220   -7.3220   -0.0520 hc        1 MOL      0.057748
     34 H14        -1.9050   -7.7140   -0.8820 hc        1 MOL      0.074131
     35 H15        -0.8620   -7.6950   -2.3170 hc        1 MOL      0.074131
     36 H16        -1.4250   -5.2880   -2.6740 hx        1 MOL      0.110393
     37 H17        -2.5280   -5.2970   -1.3070 hx        1 MOL      0.110393
     38 H18        -3.0580   -6.8960   -3.7750 hn        1 MOL      0.266343
     39 H19        -3.9300   -6.9290   -2.3420 hn        1 MOL      0.266343
     40 H20        -3.7540   -5.6410   -3.2330 hn        1 MOL      0.266343
     41 N4          3.9680   -4.0010   -1.7080 n         1 MOL     -0.319780
     42 C13         5.1480   -3.5410   -2.4770 c3        1 MOL      0.015237
     43 C14         6.2960   -3.0220   -1.5320 c         1 MOL      0.417510
     44 O6          7.3390   -2.7920   -2.0680 o         1 MOL     -0.499798
     45 C15         4.7710   -2.5700   -3.5050 c3        1 MOL     -0.293418
     46 C16         4.1540   -1.3660   -2.8750 c         1 MOL      0.872259
     47 O7          4.9080   -0.5030   -2.3660 o         1 MOL     -0.815039
     48 O8          2.9140   -1.1990   -2.8390 o         1 MOL     -0.815039
     49 H21         3.6280   -3.3350   -1.0300 hn        1 MOL      0.172632
     50 H22         5.4780   -4.4210   -3.0360 h1        1 MOL      0.132324
     51 H23         4.1470   -3.0870   -4.2330 hc        1 MOL      0.094193
     52 H24         5.6110   -2.2200   -4.1160 hc        1 MOL      0.094193
     53 N5          6.0600   -2.9240   -0.2170 n         1 MOL     -0.270582
     54 C17         7.1570   -2.6870    0.7300 c3        1 MOL     -0.058163
     55 C18         7.6930   -1.2160    0.7190 c         1 MOL      0.452709
     56 O9          8.6620   -1.0100    1.4390 o         1 MOL     -0.521339
     57 H25         5.1170   -2.9060    0.1560 hn        1 MOL      0.157155
     58 H26         7.9580   -3.3840    0.4860 h1        1 MOL      0.095106
     59 H27         6.9970   -2.9840    1.7730 h1        1 MOL      0.095106
     60 N6          7.0190   -0.2120    0.1890 n         1 MOL     -0.382110
     61 C19         7.6070    1.1630    0.2520 c3        1 MOL      0.069538
     62 C20         6.4830    2.2690    0.2400 c         1 MOL      0.543544
     63 O10         5.3420    1.9630   -0.1720 o         1 MOL     -0.541368
     64 C21         8.3820    1.4130   -1.0210 c3        1 MOL     -0.292011
     65 C22         9.6600    0.6470   -1.2140 c         1 MOL      0.698794
     66 N7          9.6690   -0.4870   -1.9140 n         1 MOL     -0.822495
     67 O11        10.7000    1.1800   -0.7630 o         1 MOL     -0.575422
     68 H28         6.0650   -0.3260   -0.1210 hn        1 MOL      0.443989
     69 H29         8.1080    1.2980    1.2150 h1        1 MOL      0.074005
     70 H30         8.5840    2.4900   -1.0740 hc        1 MOL      0.073185
     71 H31         7.7560    1.1060   -1.8630 hc        1 MOL      0.073185
     72 H32         8.7970   -0.8520   -2.2670 hn        1 MOL      0.387344
     73 H33        10.5240   -1.0050   -2.0740 hn        1 MOL      0.387344
     74 N8          6.7830    3.5120    0.6860 n         1 MOL     -0.408753
     75 C23         5.9290    4.7050    0.5110 c3        1 MOL     -0.115391
     76 C24         4.5770    4.5970    1.2500 c         1 MOL      0.580864
     77 O12         4.5630    4.3190    2.4530 o         1 MOL     -0.501113
     78 H34         7.6670    3.6990    1.1380 hn        1 MOL      0.313360
     79 H35         5.8090    4.8380   -0.5600 h1        1 MOL      0.095191
     80 H36         6.4090    5.6140    0.8940 h1        1 MOL      0.095191
     81 N9          3.4740    4.8300    0.5110 n         1 MOL     -0.506955
     82 C25         2.0680    4.6560    0.9770 c3        1 MOL      0.006455
     83 C26         1.7960    3.1370    1.3400 c         1 MOL      0.607138
     84 O13         2.5370    2.2920    0.9320 o         1 MOL     -0.416175
     85 C27         1.0240    4.9950   -0.1160 c3        1 MOL     -0.027478
     86 C28         1.0350    6.4700   -0.5750 ca        1 MOL     -0.000659
     87 C29         1.0600    7.4930    0.3540 ca        1 MOL     -0.108800
     88 C30         1.0540    6.7840   -1.9800 ca        1 MOL     -0.108800
     89 C31         1.2710    8.8210   -0.0810 ca        1 MOL     -0.315242
     90 C32         1.0940    8.1600   -2.4440 ca        1 MOL     -0.315242
     91 C33         1.2090    9.1350   -1.5030 ca        1 MOL      0.408452
     92 O14         1.1470   10.4500   -1.7970 oh        1 MOL     -0.496099
     93 H37         3.5710    5.0250   -0.4790 hn        1 MOL      0.253254
     94 H38         1.8450    5.2720    1.8540 h1        1 MOL      0.093876
     95 H39         0.0280    4.8360    0.3220 hc        1 MOL      0.021452
     96 H40         1.0790    4.2870   -0.9380 hc        1 MOL      0.021452
     97 H41         1.0750    7.2640    1.4090 ha        1 MOL      0.112482
     98 H42         1.0110    5.9420   -2.6550 ha        1 MOL      0.112482
     99 H43         1.3300    9.6790    0.5860 ha        1 MOL      0.175367
    100 H44         1.0530    8.4730   -3.4770 ha        1 MOL      0.175367
    101 H45         0.9270   10.9580   -1.0170 ho        1 MOL      0.371159
    102 N10         0.7380    2.8670    2.0750 n         1 MOL     -0.606333
    103 C34         0.1940    1.5430    2.4570 c3        1 MOL     -0.065317
    104 C35        -0.1360    0.5860    1.3000 c         1 MOL      0.692074
    105 O15         0.7540    0.2760    0.5750 o         1 MOL     -0.590248
    106 C36         0.9940    0.8790    3.5820 c3        1 MOL      0.216522
    107 C37         0.3470   -0.4420    4.1180 c3        1 MOL     -0.021337
    108 C38         1.1870    1.6950    4.8330 c3        1 MOL     -0.470456
    109 C39        -0.8610   -0.1790    5.1100 c3        1 MOL     -0.372509
    110 H46         0.2770    3.6290    2.5520 hn        1 MOL      0.333739
    111 H47        -0.7730    1.6770    2.9360 h1        1 MOL      0.062609
    112 H48         1.9570    0.5680    3.1690 hc        1 MOL      0.047775
    113 H49         1.0110   -1.0450    4.7460 hc        1 MOL      0.036264
    114 H50         0.0500   -1.1170    3.3180 hc        1 MOL      0.036264
    115 H51         1.4640    1.2500    5.7880 hc        1 MOL      0.129668
    116 H52         1.9470    2.4480    4.6380 hc        1 MOL      0.129668
    117 H53         0.2530    2.2000    5.0710 hc        1 MOL      0.129668
    118 H54        -0.4370   -0.2090    6.1110 hc        1 MOL      0.098302
    119 H55        -1.4280    0.7470    4.9750 hc        1 MOL      0.098302
    120 H56        -1.5370   -1.0000    4.8470 hc        1 MOL      0.098302
    121 N11        -1.3390    0.1260    1.0810 n         1 MOL     -0.521899
    122 C40        -1.7640   -0.8260   -0.0210 c3        1 MOL     -0.039450
    123 C41        -3.2630   -0.6570   -0.5980 c         1 MOL      0.605520
    124 O16        -3.5910   -1.2390   -1.6440 o         1 MOL     -0.550722
    125 C42        -1.6160   -2.2650    0.4510 c3        1 MOL      0.524298
    126 O17        -2.4160   -2.5160    1.7230 oh        1 MOL     -0.676889
    127 H57        -1.9560    0.4450    1.8260 hn        1 MOL      0.298145
    128 H58        -1.1140   -0.6850   -0.8810 h1        1 MOL      0.082170
    129 H59        -0.6010   -2.4300    0.8300 h1        1 MOL     -0.135447
    130 H60        -1.9100   -2.9820   -0.3140 h1        1 MOL     -0.135447
    131 H61        -1.9370   -3.1400    2.2750 ho        1 MOL      0.431140
    132 N12        -4.1390    0.1030    0.0860 n         1 MOL     -0.481519
    133 C43        -5.5390    0.1170   -0.2170 c3        1 MOL      0.042211
    134 C44        -5.8560    0.8500   -1.5550 c         1 MOL      0.720838
    135 O18        -5.0980    1.6830   -1.9770 o         1 MOL     -0.585675
    136 C45        -6.1780    0.7860    1.0230 c3        1 MOL     -0.241035
    137 H62        -3.7720    0.7790    0.7480 hn        1 MOL      0.262760
    138 H63        -5.8610   -0.9120   -0.3860 h1        1 MOL      0.127999
    139 H64        -6.2200    0.1470    1.9030 hc        1 MOL      0.089796
    140 H65        -5.6470    1.6930    1.3280 hc        1 MOL      0.089796
    141 H66        -7.1560    1.1410    0.7160 hc        1 MOL      0.089796
    142 N13        -7.0110    0.6320   -2.2140 n         1 MOL     -0.706652
    143 C46        -8.2140   -0.1210   -1.8060 c3        1 MOL      0.445900
    144 C47        -9.4750    0.4490   -2.4020 c         1 MOL      0.480837
    145 O19        -9.4100    0.9360   -3.4610 o         1 MOL     -0.517996
    146 C48        -8.0450   -1.6650   -2.0190 c3        1 MOL     -0.413729
    147 H67        -7.0880    1.1860   -3.0520 hn        1 MOL      0.334383
    148 H68        -8.1540   -0.0190   -0.7220 h1        1 MOL     -0.108339
    149 H69        -8.9870   -2.2040   -1.9260 hc        1 MOL      0.110993
    150 H70        -7.6500   -1.9000   -3.0120 hc        1 MOL      0.110993
    151 H71        -7.2210   -1.9420   -1.3620 hc        1 MOL      0.110993
    152 N14       -10.6320    0.4080   -1.6740 n         1 MOL     -0.502999
    153 C49       -10.7580   -0.1320   -0.3210 c3        1 MOL      0.019555
    154 C50        -9.9870    0.6500    0.7110 c         1 MOL      0.487188
    155 O20        -9.4460    0.1210    1.7520 o         1 MOL     -0.530848
    156 C51       -12.2240   -0.5160    0.0320 c3        1 MOL     -0.001031
    157 C52       -13.2590    0.6190    0.1830 c3        1 MOL     -0.254362
    158 C53       -14.5840    0.0300    0.4070 c         1 MOL      0.741750
    159 O21       -14.7280   -0.9130    1.2230 o         1 MOL     -0.662410
    160 O22       -15.6110    0.5440   -0.0700 o         1 MOL     -0.662410
    161 H72       -11.4120    0.9230   -2.0720 hn        1 MOL      0.329201
    162 H73       -10.3130   -1.1220   -0.2190 h1        1 MOL      0.042993
    163 H74       -12.1860   -1.0770    0.9660 hc        1 MOL      0.046877
    164 H75       -12.5770   -1.2620   -0.6860 hc        1 MOL      0.046877
    165 H76       -13.1480    1.2770   -0.6800 hc        1 MOL      0.042942
    166 H77       -13.0200    1.2370    1.0490 hc        1 MOL      0.042942
    167 N15        -9.8430    2.0040    0.4650 n         1 MOL     -0.249024
    168 C54        -9.2660    2.9900    1.2670 c3        1 MOL     -0.169379
    169 H78        -9.4550    2.7610    2.3160 h1        1 MOL      0.084312
    170 H79        -8.1910    3.0190    1.0910 h1        1 MOL      0.084312
    171 H80        -9.7010    3.9580    1.0230 h1        1 MOL      0.084312
    172 H81       -10.2160    2.3830   -0.4060 hn        1 MOL      0.243771
    173 Ca1         2.8620    0.6540   -1.0580 Ca        1 MOL      1.738007
    174 O23         3.6310    2.4160   -2.7740 oh        1 MOL     -0.907990
    175 H82         3.4010    3.3450   -2.8440 ho        1 MOL      0.452006
    176 H83         4.3930    2.3030   -3.3500 ho        1 MOL      0.452006
    177 O24         0.8950    2.1110   -2.0440 oh        1 MOL     -0.907990
    178 H84         0.9940    2.3970   -2.9530 ho        1 MOL      0.452006
    179 H85        -0.0190    2.2970   -1.8270 ho        1 MOL      0.452006
@<TRIPOS>BOND
     1    1    2 1   
     2    1    4 1   
     3    1    5 1   
     4    1    6 1   
     5    2    3 2   
     6    2    7 1   
     7    7    8 1   
     8    7   15 1   
     9    8    9 1   
    10    8   11 1   
    11    8   16 1   
    12    9   10 2   
    13    9   19 1   
    14   11   12 1   
    15   11   17 1   
    16   11   18 1   
    17   12   13 1   
    18   12   14 1   
    19   19   20 1   
    20   19   28 1   
    21   20   21 1   
    22   20   23 1   
    23   20   29 1   
    24   21   22 2   
    25   21   41 1   
    26   23   24 1   
    27   23   30 1   
    28   23   31 1   
    29   24   25 1   
    30   24   32 1   
    31   24   33 1   
    32   25   26 1   
    33   25   34 1   
    34   25   35 1   
    35   26   27 1   
    36   26   36 1   
    37   26   37 1   
    38   27   38 1   
    39   27   39 1   
    40   27   40 1   
    41   41   42 1   
    42   41   49 1   
    43   42   43 1   
    44   42   45 1   
    45   42   50 1   
    46   43   44 2   
    47   43   53 1   
    48   45   46 1   
    49   45   51 1   
    50   45   52 1   
    51   46   47 1   
    52   46   48 1   
    53   53   54 1   
    54   53   57 1   
    55   54   55 1   
    56   54   58 1   
    57   54   59 1   
    58   55   56 2   
    59   55   60 1   
    60   60   61 1   
    61   60   68 1   
    62   61   62 1   
    63   61   64 1   
    64   61   69 1   
    65   62   63 2   
    66   62   74 1   
    67   64   65 1   
    68   64   70 1   
    69   64   71 1   
    70   65   66 1   
    71   65   67 2   
    72   66   72 1   
    73   66   73 1   
    74   74   75 1   
    75   74   78 1   
    76   75   76 1   
    77   75   79 1   
    78   75   80 1   
    79   76   77 2   
    80   76   81 1   
    81   81   82 1   
    82   81   93 1   
    83   82   83 1   
    84   82   85 1   
    85   82   94 1   
    86   83   84 2   
    87   83  102 1   
    88   85   86 1   
    89   85   95 1   
    90   85   96 1   
    91   86   87 ar  
    92   86   88 ar  
    93   87   89 ar  
    94   87   97 1   
    95   88   90 ar  
    96   88   98 1   
    97   89   91 ar  
    98   89   99 1   
    99   90   91 ar  
   100   90  100 1   
   101   91   92 1   
   102   92  101 1   
   103  102  103 1   
   104  102  110 1   
   105  103  104 1   
   106  103  106 1   
   107  103  111 1   
   108  104  105 2   
   109  104  121 1   
   110  106  107 1   
   111  106  108 1   
   112  106  112 1   
   113  107  109 1   
   114  107  113 1   
   115  107  114 1   
   116  108  115 1   
   117  108  116 1   
   118  108  117 1   
   119  109  118 1   
   120  109  119 1   
   121  109  120 1   
   122  121  122 1   
   123  121  127 1   
   124  122  123 1   
   125  122  125 1   
   126  122  128 1   
   127  123  124 2   
   128  123  132 1   
   129  125  126 1   
   130  125  129 1   
   131  125  130 1   
   132  126  131 1   
   133  132  133 1   
   134  132  137 1   
   135  133  134 1   
   136  133  136 1   
   137  133  138 1   
   138  134  135 2   
   139  134  142 1   
   140  136  139 1   
   141  136  140 1   
   142  136  141 1   
   143  142  143 1   
   144  142  147 1   
   145  143  144 1   
   146  143  146 1   
   147  143  148 1   
   148  144  145 2   
   149  144  152 1   
   150  146  149 1   
   151  146  150 1   
   152  146  151 1   
   153  152  153 1   
   154  152  161 1   
   155  153  154 1   
   156  153  156 1   
   157  153  162 1   
   158  154  155 2   
   159  154  167 1   
   160  156  157 1   
   161  156  163 1   
   162  156  164 1   
   163  157  158 1   
   164  157  165 1   
   165  157  166 1   
   166  158  159 1   
   167  158  160 1   
   168  167  168 1   
   169  167  172 1   
   170  168  169 1   
   171  168  170 1   
   172  168  171 1   
   173  174  175 1   
   174  174  176 1   
   175  177  178 1   
   176  177  179 1   
@<TRIPOS>SUBSTRUCTURE
     1 MOL         1 TEMP              0 ****  ****    0 ROOT
