@<TRIPOS>MOLECULE
MOL
  189   185     1     0     0
SMALL
resp


@<TRIPOS>ATOM
      1 C1         -5.4840   -4.0060    4.9140 c3        1 MOL     -0.242341
      2 C2         -4.9820   -3.2020    3.7210 c         1 MOL      0.711485
      3 O1         -4.6380   -3.7550    2.6570 o         1 MOL     -0.585677
      4 H1         -4.9870   -3.6600    5.8200 hc        1 MOL      0.063872
      5 H2         -6.5600   -3.8700    5.0170 hc        1 MOL      0.063872
      6 H3         -5.2630   -5.0620    4.7610 hc        1 MOL      0.063872
      7 N1         -4.9750   -1.8950    3.8070 n         1 MOL     -0.546362
      8 C3         -4.7060   -1.0170    2.6710 c3        1 MOL      0.461616
      9 C4         -3.3340   -0.8610    2.0780 c         1 MOL     -0.002437
     10 O2         -3.1140   -0.0730    1.1900 o         1 MOL     -0.389077
     11 C5         -5.3050    0.3760    3.1440 c3        1 MOL     -0.234567
     12 C6         -4.7680    0.9430    4.4620 c         1 MOL      0.761926
     13 O3         -3.9280    1.8380    4.3450 o         1 MOL     -0.694091
     14 O4         -5.2810    0.6470    5.5290 o         1 MOL     -0.694091
     15 H4         -5.3530   -1.4570    4.6260 hn        1 MOL      0.240637
     16 H5         -5.3750   -1.3510    1.8790 h1        1 MOL     -0.067571
     17 H6         -6.3790    0.2560    3.2720 hc        1 MOL      0.085835
     18 H7         -5.1140    1.0140    2.2840 hc        1 MOL      0.085835
     19 N2         -2.3030   -1.5310    2.5560 n         1 MOL     -0.268094
     20 C7         -0.8920   -1.2710    2.3640 c3        1 MOL      0.222871
     21 C8         -0.1530   -2.3850    1.6170 c         1 MOL      0.526296
     22 O5         -0.3330   -3.5350    1.7750 o         1 MOL     -0.546152
     23 C9         -0.1700   -1.0410    3.7160 c3        1 MOL     -0.249011
     24 C10        -0.7570    0.2440    4.3700 c3        1 MOL      0.181976
     25 C11        -0.2430    0.5060    5.7750 c3        1 MOL     -0.231422
     26 C12        -1.4270    0.4360    6.7940 c3        1 MOL      0.137332
     27 N3         -2.3100    1.5670    6.6760 n4        1 MOL     -0.403901
     28 H8         -2.4900   -2.3090    3.1790 hn        1 MOL      0.205580
     29 H9         -0.8350   -0.3580    1.7710 h1        1 MOL      0.243982
     30 H10         0.8980   -0.8580    3.6190 hc        1 MOL      0.091684
     31 H11        -0.3080   -1.8700    4.4020 hc        1 MOL      0.091684
     32 H12        -1.8470    0.2740    4.3480 hc        1 MOL     -0.021777
     33 H13        -0.4570    1.1190    3.7900 hc        1 MOL     -0.021777
     34 H14         0.1590    1.5090    5.8950 hc        1 MOL      0.084670
     35 H15         0.5100   -0.2030    6.0930 hc        1 MOL      0.084670
     36 H16        -1.1350    0.3270    7.8370 hx        1 MOL      0.041917
     37 H17        -1.9640   -0.4920    6.5870 hx        1 MOL      0.041917
     38 H18        -2.8550    1.5870    5.8240 hn        1 MOL      0.312527
     39 H19        -2.9600    1.6600    7.4450 hn        1 MOL      0.312527
     40 H20        -1.8120    2.4420    6.7010 hn        1 MOL      0.312527
     41 N4          0.8120   -2.1400    0.7510 n         1 MOL     -0.266443
     42 C13         1.2560   -0.8550    0.2090 c3        1 MOL     -0.592002
     43 C14         1.7650    0.1650    1.2220 c         1 MOL      0.016887
     44 O6          1.0980    1.1480    1.5680 o         1 MOL     -0.419446
     45 C15         0.3290   -0.1740   -0.8070 c3        1 MOL     -0.716437
     46 C16        -0.0040   -1.0300   -2.0530 c         1 MOL      1.093629
     47 O7         -1.1430   -1.4120   -2.3840 o         1 MOL     -0.851175
     48 O8          0.8880   -1.4150   -2.8250 o         1 MOL     -0.851175
     49 H21         1.1920   -2.9160    0.2270 hn        1 MOL      0.232162
     50 H22         2.1630   -1.0670   -0.3550 h1        1 MOL      0.265313
     51 H23         0.8370    0.7170   -1.1620 hc        1 MOL      0.308918
     52 H24        -0.6270   -0.0200   -0.3060 hc        1 MOL      0.308918
     53 N5          2.9130   -0.0840    1.8460 n         1 MOL      0.003556
     54 C17         3.9450   -1.1860    1.6140 c3        1 MOL     -0.116148
     55 C18         4.9900   -1.3640    2.6830 c         1 MOL      0.530672
     56 O9          5.1360   -0.5500    3.5800 o         1 MOL     -0.557087
     57 H25         3.1990    0.5540    2.5760 hn        1 MOL      0.211339
     58 H26         4.3480   -0.9840    0.6310 h1        1 MOL      0.101391
     59 H27         3.4260   -2.1120    1.4010 h1        1 MOL      0.101391
     60 N6          5.8470   -2.3940    2.6110 n         1 MOL     -0.446357
     61 C19         6.0600   -3.3000    1.5290 c3        1 MOL     -0.047766
     62 C20         6.7780   -2.6280    0.3660 c         1 MOL      0.473155
     63 O10         7.8360   -2.0330    0.5310 o         1 MOL     -0.477963
     64 C21         6.8390   -4.5720    2.0000 c3        1 MOL     -0.093010
     65 C22         6.9890   -5.7070    1.0070 c         1 MOL      0.673760
     66 O11         6.4020   -5.6730   -0.1350 o         1 MOL     -0.680719
     67 O12         7.5880   -6.7240    1.4050 o         1 MOL     -0.680719
     68 H28         6.4230   -2.5110    3.4310 hn        1 MOL      0.318670
     69 H29         5.0910   -3.6590    1.1730 h1        1 MOL      0.030529
     70 H30         6.3200   -4.8950    2.8960 hc        1 MOL      0.044795
     71 H31         7.8360   -4.2480    2.3050 hc        1 MOL      0.044795
     72 N7          6.2910   -2.9020   -0.8810 n         1 MOL     -0.097565
     73 C23         7.0040   -2.4960   -2.1330 c3        1 MOL     -0.367270
     74 C24         7.0610   -0.9910   -2.2960 c         1 MOL      0.493684
     75 O13         8.1720   -0.5250   -2.6380 o         1 MOL     -0.496681
     76 H32         5.4890   -3.5120   -0.9350 hn        1 MOL      0.143046
     77 H33         6.3530   -2.8070   -2.9570 h1        1 MOL      0.166053
     78 H34         8.0070   -2.9000   -2.1910 h1        1 MOL      0.166053
     79 N8          5.9830   -0.2810   -1.9480 n         1 MOL     -0.237607
     80 C25         6.0840    1.1600   -1.6210 c3        1 MOL     -0.323770
     81 C26         4.8450    1.6610   -0.7740 c         1 MOL      0.655989
     82 O14         3.7510    1.1050   -0.7930 o         1 MOL     -0.346418
     83 C27         6.1900    2.0540   -2.8820 c3        1 MOL      0.448995
     84 C28         5.2380    1.6440   -4.0330 c3        1 MOL     -0.287004
     85 O15         7.5520    2.0670   -3.3350 oh        1 MOL     -0.648853
     86 H35         5.1350   -0.8250   -1.8160 hn        1 MOL      0.170920
     87 H36         7.0630    1.3570   -1.1650 h1        1 MOL      0.161378
     88 H37         6.0720    3.1130   -2.6780 h1        1 MOL      0.040407
     89 H38         7.7190    1.1600   -3.5980 ho        1 MOL      0.392386
     90 H39         5.8270    1.0460   -4.7280 hc        1 MOL      0.055765
     91 H40         4.3920    1.0220   -3.7380 hc        1 MOL      0.055765
     92 H41         4.9320    2.5690   -4.5320 hc        1 MOL      0.055765
     93 N9          5.0800    2.7780    0.0080 n         1 MOL     -0.688039
     94 C29         4.1580    3.3010    1.0030 c3        1 MOL      0.000595
     95 C30         2.8940    3.9810    0.4730 c         1 MOL      0.448251
     96 O16         2.3470    4.7740    1.1880 o         1 MOL     -0.539760
     97 C31         4.8300    3.9080    2.2600 c3        1 MOL      0.100799
     98 C32         5.9480    4.9520    2.0380 c3        1 MOL      0.121814
     99 C33         5.4390    2.8420    3.1450 c3        1 MOL     -0.097583
    100 C34         5.4960    6.1290    1.2070 c3        1 MOL     -0.259164
    101 H42         5.9970    3.1910    0.0010 hn        1 MOL      0.360835
    102 H43         3.7830    2.3500    1.3830 h1        1 MOL      0.152244
    103 H44         4.0400    4.2990    2.9010 hc        1 MOL      0.027813
    104 H45         6.7840    4.4610    1.5560 hc        1 MOL     -0.013436
    105 H46         6.3150    5.2550    3.0190 hc        1 MOL     -0.013436
    106 H47         4.6450    2.3550    3.7100 hc        1 MOL      0.019815
    107 H48         6.0250    2.1650    2.5100 hc        1 MOL      0.019815
    108 H49         6.1500    3.3280    3.7990 hc        1 MOL      0.019815
    109 H50         4.6050    6.6190    1.5940 hc        1 MOL      0.062275
    110 H51         6.2970    6.8550    1.3470 hc        1 MOL      0.062275
    111 H52         5.3710    5.9010    0.1480 hc        1 MOL      0.062275
    112 N10         2.4700    3.6650   -0.7590 n         1 MOL     -0.087532
    113 C35         1.3710    4.2250   -1.5130 c3        1 MOL     -0.051552
    114 C36        -0.0940    4.0610   -0.9440 c         1 MOL      0.327170
    115 O17        -0.8830    4.9710   -1.2180 o         1 MOL     -0.547478
    116 C37         1.4350    3.7620   -2.9710 c3        1 MOL      0.191154
    117 C38         1.3070    2.2890   -3.3230 c3        1 MOL     -0.154593
    118 O18         2.7160    4.1460   -3.3700 oh        1 MOL     -0.652841
    119 H53         3.0350    2.9630   -1.2220 hn        1 MOL      0.097293
    120 H54         1.4970    5.3050   -1.5740 h1        1 MOL      0.121247
    121 H55         0.7050    4.3800   -3.4890 h1        1 MOL      0.046976
    122 H56         2.7880    4.1260   -4.3270 ho        1 MOL      0.416273
    123 H57         2.0370    1.7950   -2.6820 hc        1 MOL      0.050084
    124 H58         0.2900    1.9300   -3.2520 hc        1 MOL      0.050084
    125 H59         1.4990    2.0980   -4.3790 hc        1 MOL      0.050084
    126 N11        -0.3860    3.1260   -0.0320 n         1 MOL      0.031750
    127 C39        -1.7230    2.6490    0.3620 c3        1 MOL      0.045110
    128 C40        -2.5990    2.2670   -0.8670 c         1 MOL      0.342475
    129 O19        -2.2190    2.4500   -2.0110 o         1 MOL     -0.510068
    130 C41        -2.4960    3.7630    1.1910 c3        1 MOL      0.372395
    131 C42        -1.6140    4.3530    2.2280 c3        1 MOL     -0.327824
    132 O20        -3.5940    3.1820    1.8620 oh        1 MOL     -0.686794
    133 H60         0.3460    2.4780    0.2160 hn        1 MOL      0.006581
    134 H61        -1.6000    1.7670    0.9880 h1        1 MOL      0.039922
    135 H62        -2.7270    4.5940    0.5170 h1        1 MOL      0.017409
    136 H63        -3.3240    3.0700    2.7850 ho        1 MOL      0.404468
    137 H64        -0.9410    5.0790    1.7810 hc        1 MOL      0.077958
    138 H65        -2.2020    4.8380    3.0130 hc        1 MOL      0.077958
    139 H66        -1.1060    3.5290    2.7240 hc        1 MOL      0.077958
    140 N12        -3.8540    1.7220   -0.7100 n         1 MOL     -0.208966
    141 C43        -5.0110    1.7190   -1.6950 c3        1 MOL      0.156953
    142 C44        -5.5120    0.2970   -1.9680 c         1 MOL      0.401168
    143 O21        -6.4800    0.1220   -2.7430 o         1 MOL     -0.582363
    144 C45        -6.0000    2.7160   -1.1080 c3        1 MOL      0.254914
    145 C46        -7.2320    3.2770   -1.8770 c3        1 MOL     -0.207956
    146 C47        -6.8680    3.8110   -3.2930 c3        1 MOL     -0.100426
    147 C48        -6.2280    5.1720   -3.3590 c3        1 MOL      0.155726
    148 N13        -5.8130    5.4390   -4.7370 n4        1 MOL     -0.459557
    149 H67        -4.1390    1.6230    0.2460 hn        1 MOL      0.166022
    150 H68        -4.6580    2.0960   -2.6510 h1        1 MOL      0.010648
    151 H69        -5.4060    3.5980   -0.8740 hc        1 MOL     -0.055732
    152 H70        -6.3750    2.3310   -0.1570 hc        1 MOL     -0.055732
    153 H71        -7.7700    4.0800   -1.3700 hc        1 MOL      0.082702
    154 H72        -7.8840    2.4420   -2.1130 hc        1 MOL      0.082702
    155 H73        -7.7860    3.8360   -3.8750 hc        1 MOL      0.043370
    156 H74        -6.3160    3.0880   -3.8870 hc        1 MOL      0.043370
    157 H75        -5.3760    5.2560   -2.6920 hx        1 MOL      0.061730
    158 H76        -6.9420    5.9360   -3.0530 hx        1 MOL      0.061730
    159 H77        -6.6560    5.4190   -5.2990 hn        1 MOL      0.350438
    160 H78        -5.3040    6.3160   -4.7970 hn        1 MOL      0.350438
    161 H79        -5.1760    4.7400   -5.0880 hn        1 MOL      0.350438
    162 N14        -4.8840   -0.7550   -1.4100 n         1 MOL     -0.243383
    163 C49        -5.1290   -2.1780   -1.6580 c3        1 MOL      0.119492
    164 C50        -6.5430   -2.7460   -1.2960 c         1 MOL      0.313081
    165 O22        -7.1600   -2.4790   -0.2680 o         1 MOL     -0.483686
    166 C51        -4.0020   -2.9400   -0.9680 c3        1 MOL      0.565332
    167 C52        -4.0180   -4.3940   -1.2990 c3        1 MOL     -0.969538
    168 C53        -3.8000   -4.6410   -2.7730 c         1 MOL      0.797887
    169 O23        -4.8170   -4.7820   -3.4680 o         1 MOL     -0.734687
    170 O24        -2.6630   -4.3720   -3.2450 o         1 MOL     -0.734687
    171 H80        -4.1150   -0.4990   -0.8080 hn        1 MOL      0.100543
    172 H81        -5.1000   -2.2500   -2.7470 h1        1 MOL      0.067149
    173 H82        -4.2050   -2.9070    0.1050 hc        1 MOL     -0.059155
    174 H83        -2.9990   -2.5430   -1.1560 hc        1 MOL     -0.059155
    175 H84        -4.9950   -4.7890   -1.0390 hc        1 MOL      0.238676
    176 H85        -3.3390   -5.0240   -0.7190 hc        1 MOL      0.238676
    177 N15        -7.1790   -3.3810   -2.2540 n         1 MOL     -0.314716
    178 C54        -8.6290   -3.7660   -2.1470 c3        1 MOL      0.050448
    179 H86        -9.1040   -3.6650   -3.1230 h1        1 MOL      0.032685
    180 H87        -8.7060   -4.8000   -1.8100 h1        1 MOL      0.032685
    181 H88        -9.1270   -3.1120   -1.4320 h1        1 MOL      0.032685
    182 H89        -6.7170   -3.5640   -3.1250 hn        1 MOL      0.339922
    183 Ca1        -0.1560   -3.7560   -3.3790 Ca        1 MOL      1.687878
    184 O25         1.4390   -3.4570   -5.5000 oh        1 MOL     -0.862442
    185 H90         1.3600   -2.5520   -5.8210 ho        1 MOL      0.433758
    186 H91         2.3740   -3.6480   -5.5670 ho        1 MOL      0.433758
    187 O26        -1.3790   -2.4720   -5.6650 oh        1 MOL     -0.862442
    188 H92        -0.9050   -1.9030   -6.2610 ho        1 MOL      0.433758
    189 H93        -2.2800   -2.4560   -5.9660 ho        1 MOL      0.433758
@<TRIPOS>BOND
     1    1    2 1   
     2    1    4 1   
     3    1    5 1   
     4    1    6 1   
     5    2    3 2   
     6    2    7 1   
     7    7    8 1   
     8    7   15 1   
     9    8    9 1   
    10    8   11 1   
    11    8   16 1   
    12    9   10 2   
    13    9   19 1   
    14   11   12 1   
    15   11   17 1   
    16   11   18 1   
    17   12   13 1   
    18   12   14 1   
    19   19   20 1   
    20   19   28 1   
    21   20   21 1   
    22   20   23 1   
    23   20   29 1   
    24   21   22 2   
    25   21   41 1   
    26   23   24 1   
    27   23   30 1   
    28   23   31 1   
    29   24   25 1   
    30   24   32 1   
    31   24   33 1   
    32   25   26 1   
    33   25   34 1   
    34   25   35 1   
    35   26   27 1   
    36   26   36 1   
    37   26   37 1   
    38   27   38 1   
    39   27   39 1   
    40   27   40 1   
    41   41   42 1   
    42   41   49 1   
    43   42   43 1   
    44   42   45 1   
    45   42   50 1   
    46   43   44 2   
    47   43   53 1   
    48   45   46 1   
    49   45   51 1   
    50   45   52 1   
    51   46   47 1   
    52   46   48 1   
    53   53   54 1   
    54   53   57 1   
    55   54   55 1   
    56   54   58 1   
    57   54   59 1   
    58   55   56 2   
    59   55   60 1   
    60   60   61 1   
    61   60   68 1   
    62   61   62 1   
    63   61   64 1   
    64   61   69 1   
    65   62   63 2   
    66   62   72 1   
    67   64   65 1   
    68   64   70 1   
    69   64   71 1   
    70   65   66 1   
    71   65   67 1   
    72   72   73 1   
    73   72   76 1   
    74   73   74 1   
    75   73   77 1   
    76   73   78 1   
    77   74   75 2   
    78   74   79 1   
    79   79   80 1   
    80   79   86 1   
    81   80   81 1   
    82   80   83 1   
    83   80   87 1   
    84   81   82 2   
    85   81   93 1   
    86   83   84 1   
    87   83   85 1   
    88   83   88 1   
    89   84   90 1   
    90   84   91 1   
    91   84   92 1   
    92   85   89 1   
    93   93   94 1   
    94   93  101 1   
    95   94   95 1   
    96   94   97 1   
    97   94  102 1   
    98   95   96 2   
    99   95  112 1   
   100   97   98 1   
   101   97   99 1   
   102   97  103 1   
   103   98  100 1   
   104   98  104 1   
   105   98  105 1   
   106   99  106 1   
   107   99  107 1   
   108   99  108 1   
   109  100  109 1   
   110  100  110 1   
   111  100  111 1   
   112  112  113 1   
   113  112  119 1   
   114  113  114 1   
   115  113  116 1   
   116  113  120 1   
   117  114  115 2   
   118  114  126 1   
   119  116  117 1   
   120  116  118 1   
   121  116  121 1   
   122  117  123 1   
   123  117  124 1   
   124  117  125 1   
   125  118  122 1   
   126  126  127 1   
   127  126  133 1   
   128  127  128 1   
   129  127  130 1   
   130  127  134 1   
   131  128  129 2   
   132  128  140 1   
   133  130  131 1   
   134  130  132 1   
   135  130  135 1   
   136  131  137 1   
   137  131  138 1   
   138  131  139 1   
   139  132  136 1   
   140  140  141 1   
   141  140  149 1   
   142  141  142 1   
   143  141  144 1   
   144  141  150 1   
   145  142  143 2   
   146  142  162 1   
   147  144  145 1   
   148  144  151 1   
   149  144  152 1   
   150  145  146 1   
   151  145  153 1   
   152  145  154 1   
   153  146  147 1   
   154  146  155 1   
   155  146  156 1   
   156  147  148 1   
   157  147  157 1   
   158  147  158 1   
   159  148  159 1   
   160  148  160 1   
   161  148  161 1   
   162  162  163 1   
   163  162  171 1   
   164  163  164 1   
   165  163  166 1   
   166  163  172 1   
   167  164  165 2   
   168  164  177 1   
   169  166  167 1   
   170  166  173 1   
   171  166  174 1   
   172  167  168 1   
   173  167  175 1   
   174  167  176 1   
   175  168  169 1   
   176  168  170 1   
   177  177  178 1   
   178  177  182 1   
   179  178  179 1   
   180  178  180 1   
   181  178  181 1   
   182  184  185 1   
   183  184  186 1   
   184  187  188 1   
   185  187  189 1   
@<TRIPOS>SUBSTRUCTURE
     1 MOL         1 TEMP              0 ****  ****    0 ROOT
