@<TRIPOS>MOLECULE
MOL
  188   182     1     0     0
SMALL
resp


@<TRIPOS>ATOM
      1 C1         -3.4440    1.0090   -3.1630 c3        1 MOL     -0.336086
      2 C2         -4.4610    1.1030   -1.9540 c         1 MOL      0.773731
      3 O1         -4.1000    0.5140   -0.9300 o         1 MOL     -0.509101
      4 H1         -3.8990    0.4450   -3.9770 hc        1 MOL      0.076297
      5 H2         -3.1970    2.0120   -3.5110 hc        1 MOL      0.076297
      6 H3         -2.5350    0.5040   -2.8360 hc        1 MOL      0.076297
      7 N1         -5.6270    1.7570   -2.1030 n         1 MOL     -0.668008
      8 C3         -6.7740    1.7070   -1.1870 c3        1 MOL      0.081118
      9 C4         -7.2140    0.2720   -0.6840 c         1 MOL      0.305867
     10 O2         -7.9510    0.0640    0.2950 o         1 MOL     -0.492101
     11 C5         -6.5370    2.7350   -0.0220 c3        1 MOL     -0.182507
     12 C6         -6.2740    4.2010   -0.4740 c         1 MOL      0.685819
     13 O3         -6.1820    4.5630   -1.6360 o         1 MOL     -0.660339
     14 O4         -6.2110    5.0400    0.4930 o         1 MOL     -0.660339
     15 H4         -5.7680    2.2100   -2.9970 hn        1 MOL      0.335144
     16 H5         -7.6040    2.0440   -1.8020 h1        1 MOL      0.090338
     17 H6         -5.6950    2.3570    0.5620 hc        1 MOL      0.074539
     18 H7         -7.4090    2.7900    0.6380 hc        1 MOL      0.074539
     19 N2         -6.6770   -0.7440   -1.3710 n         1 MOL     -0.137622
     20 C7         -6.9280   -2.1730   -1.2200 c3        1 MOL     -0.077021
     21 C8         -5.7090   -3.0510   -0.9680 c         1 MOL      0.577868
     22 O5         -5.8620   -4.2730   -0.7980 o         1 MOL     -0.567269
     23 C9         -7.7360   -2.6180   -2.4270 c3        1 MOL     -0.179810
     24 C10        -9.2010   -2.0640   -2.5080 c3        1 MOL      0.091950
     25 C11       -10.1190   -3.0230   -3.2320 c3        1 MOL     -0.028674
     26 C12       -11.6160   -2.6440   -3.1140 c3        1 MOL      0.039348
     27 N3        -12.3730   -3.3330   -2.0290 n4        1 MOL     -0.346640
     28 H8         -6.1890   -0.3970   -2.1860 hn        1 MOL      0.156159
     29 H9         -7.5480   -2.3310   -0.3410 h1        1 MOL      0.127013
     30 H10        -7.6680   -3.7080   -2.5080 hc        1 MOL      0.064786
     31 H11        -7.3390   -2.2610   -3.3820 hc        1 MOL      0.064786
     32 H12        -9.2250   -1.0620   -2.9440 hc        1 MOL      0.008181
     33 H13        -9.5890   -1.9120   -1.4970 hc        1 MOL      0.008181
     34 H14       -10.0680   -4.0220   -2.8080 hc        1 MOL      0.035037
     35 H15        -9.7440   -3.1720   -4.2470 hc        1 MOL      0.035037
     36 H16       -12.1130   -2.9420   -4.0370 hx        1 MOL      0.070683
     37 H17       -11.7750   -1.5650   -3.0730 hx        1 MOL      0.070683
     38 H18       -13.2520   -2.8630   -1.8940 hn        1 MOL      0.299107
     39 H19       -12.5820   -4.2850   -2.2740 hn        1 MOL      0.299107
     40 H20       -11.8670   -3.2590   -1.1600 hn        1 MOL      0.299107
     41 N4         -4.4790   -2.4980   -0.9190 n         1 MOL     -0.344410
     42 C13        -3.3590   -3.1470   -0.3280 c3        1 MOL     -0.011808
     43 C14        -3.3850   -3.0430    1.2020 c         1 MOL      0.498852
     44 O6         -3.8850   -2.1840    1.9160 o         1 MOL     -0.464408
     45 C15        -2.1030   -2.4660   -0.8950 c3        1 MOL     -0.132307
     46 C16        -0.7770   -3.0110   -0.4400 c         1 MOL      0.628523
     47 O7          0.2200   -2.2610   -0.4620 o         1 MOL     -0.682526
     48 O8         -0.7080   -4.2090    0.0070 o         1 MOL     -0.682526
     49 H21        -4.3600   -1.5650   -1.2870 hn        1 MOL      0.151600
     50 H22        -3.3860   -4.2130   -0.5780 h1        1 MOL      0.057541
     51 H23        -2.2500   -1.3950   -0.8000 hc        1 MOL      0.076232
     52 H24        -2.0310   -2.7100   -1.9520 hc        1 MOL      0.076232
     53 N5         -2.9160   -4.1440    1.7720 n         1 MOL     -0.264847
     54 C17        -2.9620   -4.5100    3.2010 c3        1 MOL     -0.162206
     55 C18        -2.4190   -3.4110    4.1000 c         1 MOL      0.491203
     56 O9         -2.9440   -3.2960    5.1900 o         1 MOL     -0.542086
     57 H25        -2.5010   -4.8360    1.1510 hn        1 MOL      0.232227
     58 H26        -2.4250   -5.4650    3.2590 h1        1 MOL      0.107550
     59 H27        -3.9890   -4.7200    3.4810 h1        1 MOL      0.107550
     60 N6         -1.3710   -2.7070    3.7720 n         1 MOL     -0.269504
     61 C19        -0.8660   -1.5400    4.5150 c3        1 MOL     -0.038614
     62 C20        -1.7100   -0.2820    4.3580 c         1 MOL      0.440722
     63 O10        -1.5170    0.6900    5.0920 o         1 MOL     -0.535940
     64 C21         0.6010   -1.2710    4.1020 c3        1 MOL     -0.414177
     65 C22         0.8170   -1.4610    2.6180 c         1 MOL      0.531562
     66 N7          0.6380   -0.5030    1.7980 n         1 MOL     -0.499579
     67 O11         0.9760   -2.5780    2.1230 o         1 MOL     -0.524780
     68 H28        -0.9320   -2.9370    2.8920 hn        1 MOL      0.190304
     69 H29        -0.8670   -1.7820    5.5820 h1        1 MOL      0.142086
     70 H30         1.1840   -2.0500    4.6010 hc        1 MOL      0.158570
     71 H31         0.8910   -0.2530    4.3740 hc        1 MOL      0.158570
     72 H32         0.4510    0.4590    2.0600 hn        1 MOL      0.285933
     73 H33         0.5550   -0.6590    0.8060 hn        1 MOL      0.285933
     74 N8         -2.6100   -0.1800    3.3920 n         1 MOL     -0.123760
     75 C23        -3.5750    0.9080    3.3010 c3        1 MOL     -0.140236
     76 C24        -3.1150    2.2110    2.6570 c         1 MOL      0.520827
     77 O12        -3.3530    3.2900    3.2420 o         1 MOL     -0.498385
     78 H34        -2.9360   -0.9880    2.8720 hn        1 MOL      0.172367
     79 H35        -3.8900    1.1910    4.3070 h1        1 MOL      0.096168
     80 H36        -4.4370    0.5180    2.7600 h1        1 MOL      0.096168
     81 N9         -2.5220    2.0560    1.4340 n         1 MOL     -0.407238
     82 C25        -1.7770    3.1430    0.8010 c3        1 MOL      0.095468
     83 C26        -0.6070    2.6240   -0.1340 c         1 MOL      0.356301
     84 O13        -0.4740    1.4710   -0.4110 o         1 MOL     -0.445789
     85 C27        -2.7190    4.1170    0.0350 c3        1 MOL      0.025465
     86 C28        -2.1660    5.4620   -0.3750 ca        1 MOL      0.106381
     87 C29        -1.6330    6.3030    0.5980 ca        1 MOL     -0.149623
     88 C30        -2.1000    5.8720   -1.7220 ca        1 MOL     -0.149623
     89 C31        -1.1520    7.5600    0.2830 ca        1 MOL     -0.240017
     90 C32        -1.5580    7.1160   -2.0490 ca        1 MOL     -0.240017
     91 C33        -1.0740    7.9970   -1.0540 ca        1 MOL      0.319601
     92 O14        -0.4650    9.1770   -1.3640 oh        1 MOL     -0.479463
     93 H37        -2.4890    1.1410    1.0210 hn        1 MOL      0.217493
     94 H38        -1.3610    3.6940    1.6380 h1        1 MOL      0.020961
     95 H39        -3.5790    4.2530    0.6890 hc        1 MOL      0.045769
     96 H40        -3.1500    3.6480   -0.8460 hc        1 MOL      0.045769
     97 H41        -1.7200    6.0310    1.6360 ha        1 MOL      0.129602
     98 H42        -2.5130    5.1670   -2.4280 ha        1 MOL      0.129602
     99 H43        -0.9670    8.2280    1.1120 ha        1 MOL      0.136341
    100 H44        -1.4690    7.4360   -3.0710 ha        1 MOL      0.136341
    101 H45        -0.6170    9.3320   -2.2970 ho        1 MOL      0.353138
    102 N10         0.3170    3.5260   -0.5600 n         1 MOL     -0.160741
    103 C34         1.5200    3.1220   -1.3130 c3        1 MOL     -0.065985
    104 C35         2.5180    2.4040   -0.3790 c         1 MOL      0.494592
    105 O15         3.2020    1.3980   -0.7880 o         1 MOL     -0.599392
    106 C36         2.0330    4.3840   -2.0200 c3        1 MOL      0.016101
    107 C37         3.4800    4.1200   -2.6510 c3        1 MOL      0.007902
    108 C38         2.0810    5.7030   -1.2960 c3        1 MOL     -0.156081
    109 C39         4.2160    5.2690   -3.2920 c3        1 MOL     -0.324180
    110 H46         0.0660    4.4970   -0.5290 hn        1 MOL      0.044584
    111 H47         1.1260    2.4200   -2.0510 h1        1 MOL      0.126358
    112 H48         1.3790    4.5110   -2.8850 hc        1 MOL      0.031593
    113 H49         3.3050    3.2780   -3.3130 hc        1 MOL      0.046168
    114 H50         4.2310    3.7070   -1.9810 hc        1 MOL      0.046168
    115 H51         2.5540    5.5820   -0.3160 hc        1 MOL      0.045995
    116 H52         2.5580    6.5060   -1.8510 hc        1 MOL      0.045995
    117 H53         1.1010    6.0200   -0.9420 hc        1 MOL      0.045995
    118 H54         3.5850    5.8630   -3.9450 hc        1 MOL      0.091691
    119 H55         4.5340    6.0120   -2.5690 hc        1 MOL      0.091691
    120 H56         4.9990    4.8490   -3.9330 hc        1 MOL      0.091691
    121 N11         2.5970    2.6890    0.9230 n         1 MOL     -0.284717
    122 C40         3.2150    1.8780    1.9930 c3        1 MOL     -0.084291
    123 C41         4.7200    2.1250    2.2180 c         1 MOL      0.387765
    124 O16         5.2390    1.5730    3.2400 o         1 MOL     -0.499315
    125 C42         2.3960    2.0400    3.3010 c3        1 MOL      0.067126
    126 O17         1.0450    2.2380    3.0240 oh        1 MOL     -0.544806
    127 H57         1.9070    3.3550    1.2400 hn        1 MOL      0.193712
    128 H58         3.0870    0.8590    1.6420 h1        1 MOL      0.141938
    129 H59         2.6490    2.9450    3.8510 h1        1 MOL      0.084126
    130 H60         2.5740    1.2220    3.9920 h1        1 MOL      0.084126
    131 H61         0.9000    3.1910    3.0190 ho        1 MOL      0.421020
    132 N12         5.3070    2.9120    1.3740 n         1 MOL     -0.300836
    133 C43         6.7150    3.2800    1.3390 c3        1 MOL      0.226385
    134 C44         7.6020    2.0490    1.2900 c         1 MOL      0.439680
    135 O18         8.7870    1.9870    1.5910 o         1 MOL     -0.528471
    136 C45         7.0580    4.1960    2.4730 c3        1 MOL     -0.180970
    137 H62         4.7120    3.2370    0.6150 hn        1 MOL      0.187733
    138 H63         6.9310    3.8680    0.4470 h1        1 MOL      0.046780
    139 H64         6.6750    3.6750    3.3470 hc        1 MOL      0.059558
    140 H65         8.1300    4.3460    2.6030 hc        1 MOL      0.059558
    141 H66         6.6410    5.1930    2.3720 hc        1 MOL      0.059558
    142 N13         7.0270    0.9200    0.8310 n         1 MOL     -0.557202
    143 C46         7.7370   -0.3610    0.5810 c3        1 MOL      0.617738
    144 C47         7.1810   -0.9200   -0.7510 c         1 MOL      0.150913
    145 O19         6.0750   -0.6050   -1.1990 o         1 MOL     -0.394055
    146 C48         7.6350   -1.2020    1.8220 c3        1 MOL     -0.394079
    147 H67         6.1040    0.9700    0.4250 hn        1 MOL      0.227921
    148 H68         8.7960   -0.2120    0.3630 h1        1 MOL     -0.041222
    149 H69         6.7040   -1.7670    1.8880 hc        1 MOL      0.102069
    150 H70         8.5020   -1.8720    1.8230 hc        1 MOL      0.102069
    151 H71         7.6580   -0.6170    2.7390 hc        1 MOL      0.102069
    152 N14         7.8220   -1.9050   -1.4180 n         1 MOL     -0.318929
    153 C49         7.4130   -2.5970   -2.7130 c3        1 MOL      0.036741
    154 C50         7.5050   -1.6050   -3.8920 c         1 MOL      0.403557
    155 O20         6.9010   -1.7460   -4.9080 o         1 MOL     -0.482890
    156 C51         6.1630   -3.4460   -2.7200 c3        1 MOL      0.261942
    157 C52         6.3550   -4.6580   -1.7960 c3        1 MOL     -0.055797
    158 C53         5.0990   -5.6100   -1.7620 c         1 MOL      0.594500
    159 O21         5.1250   -6.7440   -2.3190 o         1 MOL     -0.649322
    160 O22         4.1630   -5.2020   -1.0190 o         1 MOL     -0.649322
    161 H72         8.7190   -2.0740   -0.9970 hn        1 MOL      0.229388
    162 H73         8.2940   -3.1860   -2.9460 h1        1 MOL      0.051620
    163 H74         5.9830   -3.7210   -3.7640 hc        1 MOL     -0.043214
    164 H75         5.3720   -2.8160   -2.3130 hc        1 MOL     -0.043214
    165 H76         6.4930   -4.2400   -0.7950 hc        1 MOL     -0.054548
    166 H77         7.3110   -5.1040   -2.0790 hc        1 MOL     -0.054548
    167 N15         8.3350   -0.5860   -3.7350 n         1 MOL     -0.203304
    168 C54         8.3950    0.5220   -4.6770 c3        1 MOL     -0.259538
    169 H78         8.9010    1.3670   -4.2110 h1        1 MOL      0.113798
    170 H79         8.9460    0.2140   -5.5650 h1        1 MOL      0.113798
    171 H80         7.3830    0.8150   -4.9590 h1        1 MOL      0.113798
    172 H81         9.0080   -0.6800   -2.9970 hn        1 MOL      0.203810
    173 Ca1         2.0860   -4.1900    0.0150 Ca        1 MOL      1.775869
    174 O23         1.7670   -4.2090   -2.6930 oh        1 MOL     -0.906688
    175 H82         2.1510   -4.8610   -3.2750 ho        1 MOL      0.434463
    176 H83         1.0670   -3.8060   -3.1900 ho        1 MOL      0.434463
    177 O24         3.9190   -3.3360    1.5830 oh        1 MOL     -0.906688
    178 H84         3.9390   -2.5440    2.1230 ho        1 MOL      0.434463
    179 H85         4.7540   -3.3170    1.1120 ho        1 MOL      0.434463
    180 O25         1.6660   -6.7980   -0.8450 oh        1 MOL     -0.906688
    181 H86         2.4170   -7.3780   -0.9990 ho        1 MOL      0.434463
    182 H87         0.9430   -7.3850   -0.6230 ho        1 MOL      0.434463
    183 O26         1.4160   -5.9220    2.2020 oh        1 MOL     -0.906688
    184 H88         0.9860   -5.7680    3.0310 ho        1 MOL      0.434463
    185 H89         1.6630   -6.8520    2.2230 ho        1 MOL      0.434463
    186 O27         3.2750   -1.5560   -0.5120 oh        1 MOL     -0.906688
    187 H90         4.0890   -1.2690   -0.9220 ho        1 MOL      0.434463
    188 H91         2.7500   -0.7640   -0.4220 ho        1 MOL      0.434463
@<TRIPOS>BOND
     1    1    2 1   
     2    1    4 1   
     3    1    5 1   
     4    1    6 1   
     5    2    3 2   
     6    2    7 1   
     7    7    8 1   
     8    7   15 1   
     9    8    9 1   
    10    8   11 1   
    11    8   16 1   
    12    9   10 2   
    13    9   19 1   
    14   11   12 1   
    15   11   17 1   
    16   11   18 1   
    17   12   13 1   
    18   12   14 1   
    19   19   20 1   
    20   19   28 1   
    21   20   21 1   
    22   20   23 1   
    23   20   29 1   
    24   21   22 2   
    25   21   41 1   
    26   23   24 1   
    27   23   30 1   
    28   23   31 1   
    29   24   25 1   
    30   24   32 1   
    31   24   33 1   
    32   25   26 1   
    33   25   34 1   
    34   25   35 1   
    35   26   27 1   
    36   26   36 1   
    37   26   37 1   
    38   27   38 1   
    39   27   39 1   
    40   27   40 1   
    41   41   42 1   
    42   41   49 1   
    43   42   43 1   
    44   42   45 1   
    45   42   50 1   
    46   43   44 2   
    47   43   53 1   
    48   45   46 1   
    49   45   51 1   
    50   45   52 1   
    51   46   47 1   
    52   46   48 1   
    53   53   54 1   
    54   53   57 1   
    55   54   55 1   
    56   54   58 1   
    57   54   59 1   
    58   55   56 2   
    59   55   60 1   
    60   60   61 1   
    61   60   68 1   
    62   61   62 1   
    63   61   64 1   
    64   61   69 1   
    65   62   63 2   
    66   62   74 1   
    67   64   65 1   
    68   64   70 1   
    69   64   71 1   
    70   65   66 1   
    71   65   67 2   
    72   66   72 1   
    73   66   73 1   
    74   74   75 1   
    75   74   78 1   
    76   75   76 1   
    77   75   79 1   
    78   75   80 1   
    79   76   77 2   
    80   76   81 1   
    81   81   82 1   
    82   81   93 1   
    83   82   83 1   
    84   82   85 1   
    85   82   94 1   
    86   83   84 2   
    87   83  102 1   
    88   85   86 1   
    89   85   95 1   
    90   85   96 1   
    91   86   87 ar  
    92   86   88 ar  
    93   87   89 ar  
    94   87   97 1   
    95   88   90 ar  
    96   88   98 1   
    97   89   91 ar  
    98   89   99 1   
    99   90   91 ar  
   100   90  100 1   
   101   91   92 1   
   102   92  101 1   
   103  102  103 1   
   104  102  110 1   
   105  103  104 1   
   106  103  106 1   
   107  103  111 1   
   108  104  105 2   
   109  104  121 1   
   110  106  107 1   
   111  106  108 1   
   112  106  112 1   
   113  107  109 1   
   114  107  113 1   
   115  107  114 1   
   116  108  115 1   
   117  108  116 1   
   118  108  117 1   
   119  109  118 1   
   120  109  119 1   
   121  109  120 1   
   122  121  122 1   
   123  121  127 1   
   124  122  123 1   
   125  122  125 1   
   126  122  128 1   
   127  123  124 2   
   128  123  132 1   
   129  125  126 1   
   130  125  129 1   
   131  125  130 1   
   132  126  131 1   
   133  132  133 1   
   134  132  137 1   
   135  133  134 1   
   136  133  136 1   
   137  133  138 1   
   138  134  135 2   
   139  134  142 1   
   140  136  139 1   
   141  136  140 1   
   142  136  141 1   
   143  142  143 1   
   144  142  147 1   
   145  143  144 1   
   146  143  146 1   
   147  143  148 1   
   148  144  145 2   
   149  144  152 1   
   150  146  149 1   
   151  146  150 1   
   152  146  151 1   
   153  152  153 1   
   154  152  161 1   
   155  153  154 1   
   156  153  156 1   
   157  153  162 1   
   158  154  155 2   
   159  154  167 1   
   160  156  157 1   
   161  156  163 1   
   162  156  164 1   
   163  157  158 1   
   164  157  165 1   
   165  157  166 1   
   166  158  159 1   
   167  158  160 1   
   168  167  168 1   
   169  167  172 1   
   170  168  169 1   
   171  168  170 1   
   172  168  171 1   
   173  174  175 1   
   174  174  176 1   
   175  177  178 1   
   176  177  179 1   
   177  180  181 1   
   178  180  182 1   
   179  183  184 1   
   180  183  185 1   
   181  186  187 1   
   182  186  188 1   
@<TRIPOS>SUBSTRUCTURE
     1 MOL         1 TEMP              0 ****  ****    0 ROOT
