@<TRIPOS>MOLECULE
MOL
  181   177     1     0     0
SMALL
resp


@<TRIPOS>ATOM
      1 C1          1.1200    6.3740   -2.3290 c3        1 MOL     -0.470755
      2 C2          2.4240    6.4510   -1.5650 c         1 MOL      0.738682
      3 O1          2.4680    6.9740   -0.4470 o         1 MOL     -0.624521
      4 H1          1.0580    5.4160   -2.8450 hc        1 MOL      0.121264
      5 H2          0.2850    6.4670   -1.6350 hc        1 MOL      0.121264
      6 H3          1.0780    7.1820   -3.0590 hc        1 MOL      0.121264
      7 N1          3.5500    5.9210   -1.9660 n         1 MOL     -0.503384
      8 C3          4.8300    6.0360   -1.2440 c3        1 MOL      0.005906
      9 C4          5.0160    4.8910   -0.2460 c         1 MOL      0.628669
     10 O2          5.4170    3.7830   -0.6150 o         1 MOL     -0.517452
     11 C5          6.0400    6.0430   -2.1990 c3        1 MOL     -0.106497
     12 C6          7.4150    6.2150   -1.5730 c         1 MOL      0.679359
     13 O3          8.0630    5.1890   -1.3930 o         1 MOL     -0.727684
     14 O4          7.7470    7.3560   -1.3080 o         1 MOL     -0.727684
     15 H4          3.5880    5.5660   -2.9080 hn        1 MOL      0.262465
     16 H5          4.8670    6.9910   -0.7260 h1        1 MOL      0.063181
     17 H6          5.8980    6.8120   -2.9550 hc        1 MOL      0.001943
     18 H7          6.0520    5.1140   -2.7630 hc        1 MOL      0.001943
     19 N2          4.8060    5.1730    1.0620 n         1 MOL     -0.641102
     20 C7          4.8340    4.2120    2.1510 c3        1 MOL      0.496433
     21 C8          3.4950    3.5140    2.2480 c         1 MOL      0.389084
     22 O5          2.5110    4.1590    2.0670 o         1 MOL     -0.560710
     23 C9          5.2870    4.7040    3.5900 c3        1 MOL     -0.390122
     24 H8          4.5180    6.1030    1.3190 hn        1 MOL      0.330050
     25 H9          5.5680    3.4490    1.8620 h1        1 MOL     -0.024159
     26 H10         5.6820    3.9110    4.2340 hc        1 MOL      0.095963
     27 H11         6.0790    5.4460    3.5730 hc        1 MOL      0.095963
     28 H12         4.4460    5.1870    4.0850 hc        1 MOL      0.095963
     29 N3          3.3200    2.2780    2.6730 n         1 MOL     -0.406799
     30 C10         4.4440    1.2880    2.9800 c3        1 MOL      0.014877
     31 C11         4.6440    0.2700    1.8470 c         1 MOL      0.465537
     32 O6          3.6900   -0.3070    1.2410 o         1 MOL     -0.396906
     33 C12         4.1570    0.5870    4.3860 c3        1 MOL     -0.161367
     34 C13         2.7260    0.0270    4.5640 c         1 MOL      0.640051
     35 O7          1.9290   -0.0990    3.5880 o         1 MOL     -0.640560
     36 O8          2.3490   -0.2090    5.6970 o         1 MOL     -0.640560
     37 H13         2.3310    2.0610    2.7410 hn        1 MOL      0.345351
     38 H14         5.4060    1.8020    3.0570 h1        1 MOL      0.027689
     39 H15         4.4590    1.1860    5.2390 hc        1 MOL      0.023525
     40 H16         4.8280   -0.2640    4.3300 hc        1 MOL      0.023525
     41 N4          5.9140   -0.0470    1.5810 n         1 MOL     -0.546153
     42 C14         6.2520   -1.0820    0.5680 c3        1 MOL      0.267728
     43 C15         5.9930   -0.6860   -0.8370 c         1 MOL      0.559118
     44 O9          5.8760    0.5100   -1.1280 o         1 MOL     -0.472322
     45 H17         6.5960    0.6060    1.9490 hn        1 MOL      0.348122
     46 H18         5.6170   -1.9640    0.7220 h1        1 MOL     -0.021965
     47 H19         7.2760   -1.4000    0.7570 h1        1 MOL     -0.021965
     48 N5          5.8660   -1.5710   -1.8260 n         1 MOL     -0.609774
     49 C16         5.9960   -3.0280   -1.6950 c3        1 MOL      0.112755
     50 C17         4.8150   -3.7340   -2.4180 c         1 MOL      0.510085
     51 O10         4.0020   -3.0090   -2.9930 o         1 MOL     -0.471048
     52 C18         7.4170   -3.3920   -2.2540 c3        1 MOL     -0.271426
     53 C19         8.5050   -3.1180   -1.2220 c         1 MOL      0.683035
     54 N6          8.8060   -4.0230   -0.3430 n         1 MOL     -0.768089
     55 O11         9.2560   -2.1260   -1.3720 o         1 MOL     -0.522650
     56 H20         5.5950   -1.2620   -2.7510 hn        1 MOL      0.370453
     57 H21         6.0970   -3.3760   -0.6640 h1        1 MOL     -0.037224
     58 H22         7.5420   -2.7920   -3.1550 hc        1 MOL      0.075560
     59 H23         7.4000   -4.4510   -2.5120 hc        1 MOL      0.075560
     60 H24         8.3190   -4.9120   -0.4220 hn        1 MOL      0.361447
     61 H25         9.4740   -3.8990    0.4060 hn        1 MOL      0.361447
     62 N7          4.7270   -5.0640   -2.4270 n         1 MOL     -0.282090
     63 C20         3.6700   -5.8880   -2.8930 c3        1 MOL     -0.297947
     64 C21         2.2780   -5.6320   -2.3590 c         1 MOL      0.629430
     65 O12         1.3900   -5.5140   -3.1930 o         1 MOL     -0.539047
     66 H26         5.4830   -5.4770   -1.9060 hn        1 MOL      0.243222
     67 H27         3.9680   -6.9090   -2.6490 h1        1 MOL      0.139622
     68 H28         3.7200   -5.8150   -3.9780 h1        1 MOL      0.139622
     69 N8          1.9820   -5.5220   -1.0680 n         1 MOL     -0.481400
     70 C22         0.6090   -5.6860   -0.5040 c3        1 MOL     -0.115751
     71 C23        -0.1890   -4.3810   -0.6440 c         1 MOL      0.833781
     72 O13         0.0820   -3.3740    0.0250 o         1 MOL     -0.704069
     73 C24         0.6250   -6.2550    0.9120 c3        1 MOL      0.517196
     74 C25         1.3810   -7.5970    0.8770 c3        1 MOL     -0.480880
     75 O14         1.2790   -5.4570    1.8630 oh        1 MOL     -0.619657
     76 H29         2.7740   -5.6710   -0.4440 hn        1 MOL      0.258440
     77 H30         0.0930   -6.4660   -1.0660 h1        1 MOL      0.068644
     78 H31        -0.4410   -6.3390    1.1550 h1        1 MOL     -0.000680
     79 H32         0.6040   -5.4640    2.5530 ho        1 MOL      0.409503
     80 H33         1.2700   -8.1620   -0.0480 hc        1 MOL      0.115918
     81 H34         2.3960   -7.4090    1.2080 hc        1 MOL      0.115918
     82 H35         0.9940   -8.2870    1.6260 hc        1 MOL      0.115918
     83 N9         -1.3000   -4.4360   -1.3520 n         1 MOL     -0.661433
     84 C26        -2.4900   -3.5270   -1.2130 c3        1 MOL      0.069728
     85 C27        -3.1920   -3.8300    0.1420 c         1 MOL      0.352554
     86 O15        -3.5260   -4.9300    0.5530 o         1 MOL     -0.549115
     87 C28        -3.4970   -3.6230   -2.4150 c3        1 MOL      0.127043
     88 C29        -4.5050   -2.3480   -2.3240 c3        1 MOL      0.051821
     89 C30        -2.7460   -3.7140   -3.7210 c3        1 MOL     -0.247038
     90 C31        -5.4950   -2.2450   -3.4880 c3        1 MOL     -0.453868
     91 H36        -1.4440   -5.3010   -1.8510 hn        1 MOL      0.322533
     92 H37        -2.0560   -2.5350   -1.2860 h1        1 MOL      0.212572
     93 H38        -4.0330   -4.5310   -2.1500 hc        1 MOL     -0.009166
     94 H39        -3.8910   -1.4540   -2.4320 hc        1 MOL      0.055651
     95 H40        -5.1030   -2.3850   -1.4080 hc        1 MOL      0.055651
     96 H41        -1.9710   -4.4860   -3.7370 hc        1 MOL      0.067943
     97 H42        -3.3900   -3.8640   -4.5910 hc        1 MOL      0.067943
     98 H43        -2.3120   -2.7370   -3.9410 hc        1 MOL      0.067943
     99 H44        -6.0960   -3.1450   -3.4690 hc        1 MOL      0.099974
    100 H45        -6.1640   -1.4140   -3.2620 hc        1 MOL      0.099974
    101 H46        -4.9300   -2.1800   -4.4190 hc        1 MOL      0.099974
    102 N10        -3.4020   -2.7430    0.8700 n         1 MOL      0.187950
    103 C32        -4.1260   -2.6270    2.1230 c3        1 MOL     -0.238304
    104 C33        -5.4390   -1.7830    2.0360 c         1 MOL      0.441344
    105 O16        -6.4040   -2.0050    2.8280 o         1 MOL     -0.558563
    106 C34        -3.2580   -1.8520    3.1280 c3        1 MOL      0.109608
    107 C35        -1.9060   -2.4670    3.4480 c         1 MOL      0.623500
    108 O17        -1.8940   -3.1640    4.5020 o         1 MOL     -0.688489
    109 O18        -0.8110   -2.0930    2.8570 o         1 MOL     -0.688489
    110 H47        -3.0530   -1.8610    0.5040 hn        1 MOL     -0.288432
    111 H48        -4.3650   -3.6270    2.4630 h1        1 MOL      0.125402
    112 H49        -3.7810   -1.6950    4.0800 hc        1 MOL      0.010889
    113 H50        -3.1300   -0.8710    2.6750 hc        1 MOL      0.010889
    114 N11        -5.5620   -0.9310    1.0590 n         1 MOL     -0.143462
    115 C36        -6.5200    0.1660    1.0170 c3        1 MOL      0.295635
    116 C37        -6.0290    1.4370    0.2750 c         1 MOL      0.297240
    117 O19        -6.4600    1.6500   -0.9190 o         1 MOL     -0.427395
    118 C38        -7.8700   -0.4270    0.5790 c3        1 MOL     -0.318097
    119 C39        -9.0770    0.5230    0.3860 ca        1 MOL      0.151601
    120 C40        -9.5140    0.8510   -0.9130 ca        1 MOL     -0.197982
    121 C41        -9.7130    1.1180    1.4930 ca        1 MOL     -0.197982
    122 C42       -10.5280    1.8300   -1.0770 ca        1 MOL     -0.065695
    123 C43       -10.6650    2.1300    1.3450 ca        1 MOL     -0.065695
    124 C44       -11.0790    2.4630    0.0040 ca        1 MOL     -0.174407
    125 H51        -4.8070   -0.8120    0.3950 hn        1 MOL     -0.023593
    126 H52        -6.6170    0.4560    2.0590 h1        1 MOL     -0.009604
    127 H53        -8.1180   -1.3340    1.1280 hc        1 MOL      0.106138
    128 H54        -7.6760   -0.8770   -0.3980 hc        1 MOL      0.106138
    129 H55        -9.2380    0.2650   -1.7820 ha        1 MOL      0.124533
    130 H56        -9.3750    0.8880    2.4950 ha        1 MOL      0.124533
    131 H57       -10.9890    1.8130   -2.0540 ha        1 MOL      0.091006
    132 H58       -11.1270    2.6180    2.1900 ha        1 MOL      0.091006
    133 H59       -11.8570    3.2160   -0.0790 ha        1 MOL      0.101035
    134 N12        -5.2110    2.2380    1.0180 n         1 MOL     -0.050371
    135 C45        -4.9530    3.5750    0.6380 c3        1 MOL     -0.071481
    136 C46        -4.1630    3.7230   -0.6940 c         1 MOL      0.293950
    137 O20        -4.2780    4.7560   -1.3620 o         1 MOL     -0.479745
    138 C47        -4.1890    4.2450    1.7130 c3        1 MOL     -0.064441
    139 C48        -3.6230    3.1400    2.5840 c3        1 MOL     -0.141569
    140 C49        -4.7320    2.1070    2.3390 c3        1 MOL      0.052754
    141 H60        -5.8970    4.0920    0.5090 h1        1 MOL      0.092516
    142 H61        -3.4680    4.9840    1.3460 hc        1 MOL      0.059558
    143 H62        -4.8660    4.8510    2.3300 hc        1 MOL      0.059558
    144 H63        -2.7090    2.8100    2.0890 hc        1 MOL      0.075994
    145 H64        -3.5220    3.3750    3.6450 hc        1 MOL      0.075994
    146 H65        -4.3160    1.1020    2.4360 h1        1 MOL      0.022899
    147 H66        -5.5560    2.2340    3.0440 h1        1 MOL      0.022899
    148 N13        -3.5490    2.6670   -1.2090 n         1 MOL     -0.139740
    149 C50        -2.9580    2.5590   -2.6000 c3        1 MOL     -0.120252
    150 C51        -4.0060    2.8580   -3.6190 c         1 MOL      0.370879
    151 O21        -3.7660    3.7760   -4.4550 o         1 MOL     -0.530042
    152 C52        -2.3270    1.1790   -2.8400 c3        1 MOL      0.188682
    153 C53        -1.3320    0.4530   -1.9090 c3        1 MOL     -0.372135
    154 C54        -1.9580   -0.0620   -0.5860 c         1 MOL      0.098186
    155 O22        -1.0570   -0.4200    0.2090 o         1 MOL     -0.279564
    156 O23        -3.1620   -0.1010   -0.3710 o         1 MOL     -0.279564
    157 H67        -3.5970    1.7760   -0.7430 hn        1 MOL      0.237374
    158 H68        -2.2100    3.3420   -2.6800 h1        1 MOL      0.106670
    159 H69        -1.8370    1.3660   -3.7950 hc        1 MOL     -0.029856
    160 H70        -3.1670    0.4880   -2.9050 hc        1 MOL     -0.029856
    161 H71        -0.4090    1.0440   -1.7930 hc        1 MOL      0.119611
    162 H72        -0.9820   -0.4320   -2.4240 hc        1 MOL      0.119611
    163 N14        -5.1450    2.1880   -3.5510 n         1 MOL     -0.037530
    164 C55        -6.2080    2.2370   -4.5170 c3        1 MOL     -0.129930
    165 H73        -6.2300    1.3030   -5.0800 h1        1 MOL      0.060604
    166 H74        -7.1600    2.3740   -4.0040 h1        1 MOL      0.060604
    167 H75        -6.0400    3.0690   -5.2020 h1        1 MOL      0.060604
    168 H76        -5.2920    1.7180   -2.6720 hn        1 MOL      0.107925
    169 Ca1         1.0620   -1.2240    1.4150 Ca        1 MOL      1.527050
    170 O24        -0.8650    1.0240    2.8640 oh        1 MOL     -0.820726
    171 H77        -1.2520    0.7030    2.0500 ho        1 MOL      0.398005
    172 H78        -0.9410    1.9710    2.8140 ho        1 MOL      0.398005
    173 O25         2.7430   -3.2000    2.2800 oh        1 MOL     -0.820726
    174 H79         2.4070   -4.0870    2.1230 ho        1 MOL      0.398005
    175 H80         3.6360   -3.3300    2.6040 ho        1 MOL      0.398005
    176 O26         1.1910    1.2950    0.3860 oh        1 MOL     -0.820726
    177 H81         0.5570    2.0020    0.2720 ho        1 MOL      0.398005
    178 H82         1.9560    1.5760   -0.1260 ho        1 MOL      0.398005
    179 O27         2.3840   -1.8220   -0.8560 oh        1 MOL     -0.820726
    180 H83         2.1510   -2.7190   -1.1160 ho        1 MOL      0.398005
    181 H84         3.1480   -1.6110   -1.3760 ho        1 MOL      0.398005
@<TRIPOS>BOND
     1    1    2 1   
     2    1    4 1   
     3    1    5 1   
     4    1    6 1   
     5    2    3 2   
     6    2    7 1   
     7    7    8 1   
     8    7   15 1   
     9    8    9 1   
    10    8   11 1   
    11    8   16 1   
    12    9   10 2   
    13    9   19 1   
    14   11   12 1   
    15   11   17 1   
    16   11   18 1   
    17   12   13 1   
    18   12   14 1   
    19   19   20 1   
    20   19   24 1   
    21   20   21 1   
    22   20   23 1   
    23   20   25 1   
    24   21   22 2   
    25   21   29 1   
    26   23   26 1   
    27   23   27 1   
    28   23   28 1   
    29   29   30 1   
    30   29   37 1   
    31   30   31 1   
    32   30   33 1   
    33   30   38 1   
    34   31   32 2   
    35   31   41 1   
    36   33   34 1   
    37   33   39 1   
    38   33   40 1   
    39   34   35 1   
    40   34   36 1   
    41   41   42 1   
    42   41   45 1   
    43   42   43 1   
    44   42   46 1   
    45   42   47 1   
    46   43   44 2   
    47   43   48 1   
    48   48   49 1   
    49   48   56 1   
    50   49   50 1   
    51   49   52 1   
    52   49   57 1   
    53   50   51 2   
    54   50   62 1   
    55   52   53 1   
    56   52   58 1   
    57   52   59 1   
    58   53   54 1   
    59   53   55 2   
    60   54   60 1   
    61   54   61 1   
    62   62   63 1   
    63   62   66 1   
    64   63   64 1   
    65   63   67 1   
    66   63   68 1   
    67   64   65 2   
    68   64   69 1   
    69   69   70 1   
    70   69   76 1   
    71   70   71 1   
    72   70   73 1   
    73   70   77 1   
    74   71   72 2   
    75   71   83 1   
    76   73   74 1   
    77   73   75 1   
    78   73   78 1   
    79   74   80 1   
    80   74   81 1   
    81   74   82 1   
    82   75   79 1   
    83   83   84 1   
    84   83   91 1   
    85   84   85 1   
    86   84   87 1   
    87   84   92 1   
    88   85   86 2   
    89   85  102 1   
    90   87   88 1   
    91   87   89 1   
    92   87   93 1   
    93   88   90 1   
    94   88   94 1   
    95   88   95 1   
    96   89   96 1   
    97   89   97 1   
    98   89   98 1   
    99   90   99 1   
   100   90  100 1   
   101   90  101 1   
   102  102  103 1   
   103  102  110 1   
   104  103  104 1   
   105  103  106 1   
   106  103  111 1   
   107  104  105 2   
   108  104  114 1   
   109  106  107 1   
   110  106  112 1   
   111  106  113 1   
   112  107  108 1   
   113  107  109 1   
   114  114  115 1   
   115  114  125 1   
   116  115  116 1   
   117  115  118 1   
   118  115  126 1   
   119  116  117 2   
   120  116  134 1   
   121  118  119 1   
   122  118  127 1   
   123  118  128 1   
   124  119  120 ar  
   125  119  121 ar  
   126  120  122 ar  
   127  120  129 1   
   128  121  123 ar  
   129  121  130 1   
   130  122  124 ar  
   131  122  131 1   
   132  123  124 ar  
   133  123  132 1   
   134  124  133 1   
   135  134  135 1   
   136  134  140 1   
   137  135  136 1   
   138  135  138 1   
   139  135  141 1   
   140  136  137 2   
   141  136  148 1   
   142  138  139 1   
   143  138  142 1   
   144  138  143 1   
   145  139  140 1   
   146  139  144 1   
   147  139  145 1   
   148  140  146 1   
   149  140  147 1   
   150  148  149 1   
   151  148  157 1   
   152  149  150 1   
   153  149  152 1   
   154  149  158 1   
   155  150  151 2   
   156  150  163 1   
   157  152  153 1   
   158  152  159 1   
   159  152  160 1   
   160  153  154 1   
   161  153  161 1   
   162  153  162 1   
   163  154  155 1   
   164  154  156 1   
   165  163  164 1   
   166  163  168 1   
   167  164  165 1   
   168  164  166 1   
   169  164  167 1   
   170  170  171 1   
   171  170  172 1   
   172  173  174 1   
   173  173  175 1   
   174  176  177 1   
   175  176  178 1   
   176  179  180 1   
   177  179  181 1   
@<TRIPOS>SUBSTRUCTURE
     1 MOL         1 TEMP              0 ****  ****    0 ROOT
