@<TRIPOS>MOLECULE
MOL
  175   173     1     0     0
SMALL
resp


@<TRIPOS>ATOM
      1 C1         -6.2020    7.7960    1.2920 c3        1 MOL     -0.489269
      2 C2         -7.0490    6.8300    0.4900 c         1 MOL      0.731357
      3 O1         -7.0440    6.7410   -0.6980 o         1 MOL     -0.594931
      4 H1         -5.1540    7.5060    1.2200 hc        1 MOL      0.114136
      5 H2         -6.3270    8.8040    0.8960 hc        1 MOL      0.114136
      6 H3         -6.5130    7.7740    2.3360 hc        1 MOL      0.114136
      7 N1         -7.8750    6.0890    1.1860 n         1 MOL     -0.392014
      8 C3         -8.8860    5.1600    0.6080 c3        1 MOL     -0.045429
      9 C4         -8.3310    3.8710    0.0050 c         1 MOL      0.698130
     10 O2         -9.0040    2.9170   -0.2940 o         1 MOL     -0.545701
     11 C5         -9.9220    4.8260    1.6830 c3        1 MOL     -0.218817
     12 C6        -11.2810    4.5850    1.0730 c         1 MOL      0.773031
     13 O3        -11.7990    5.5590    0.5030 o         1 MOL     -0.742161
     14 O4        -11.9080    3.5610    1.2980 o         1 MOL     -0.742161
     15 H4         -7.8290    6.1090    2.1930 hn        1 MOL      0.244320
     16 H5         -9.3500    5.7610   -0.1700 h1        1 MOL      0.082490
     17 H6        -10.0420    5.6270    2.4020 hc        1 MOL      0.025871
     18 H7         -9.5080    3.9550    2.1960 hc        1 MOL      0.025871
     19 N2         -7.0010    3.8490   -0.2290 n         1 MOL     -0.680466
     20 C7         -6.2730    2.8810   -1.0950 c3        1 MOL      0.539749
     21 C8         -4.9670    2.4140   -0.4400 c         1 MOL      0.426993
     22 O5         -4.4050    3.2060    0.3330 o         1 MOL     -0.533464
     23 C9         -6.0190    3.5290   -2.4390 c3        1 MOL     -0.304102
     24 H8         -6.4840    4.6120    0.1810 hn        1 MOL      0.249172
     25 H9         -6.9180    2.0170   -1.2380 h1        1 MOL     -0.076561
     26 H10        -6.8870    3.9830   -2.9130 hc        1 MOL      0.077126
     27 H11        -5.2760    4.3110   -2.2590 hc        1 MOL      0.077126
     28 H12        -5.4540    2.9040   -3.1310 hc        1 MOL      0.077126
     29 N3         -4.4500    1.2060   -0.6410 n         1 MOL     -0.383984
     30 C10        -5.0810    0.2510   -1.5920 c3        1 MOL     -0.183612
     31 C11        -5.3240   -1.1100   -0.9190 c         1 MOL      0.598743
     32 O6         -4.5360   -1.6170   -0.0830 o         1 MOL     -0.553478
     33 C12        -4.1060   -0.0470   -2.7600 c3        1 MOL     -0.155042
     34 C13        -2.7140   -0.6590   -2.3450 c         1 MOL      0.566668
     35 O7         -2.5390   -1.8920   -2.4790 o         1 MOL     -0.661486
     36 O8         -1.8590    0.0220   -1.7190 o         1 MOL     -0.661486
     37 H13        -3.6420    0.9630   -0.0870 hn        1 MOL      0.309426
     38 H14        -6.0030    0.5810   -2.0760 h1        1 MOL      0.136872
     39 H15        -3.9420    0.8650   -3.3300 hc        1 MOL      0.054942
     40 H16        -4.5670   -0.6340   -3.5600 hc        1 MOL      0.054942
     41 N4         -6.3490   -1.8180   -1.3810 n         1 MOL     -0.445267
     42 C14        -6.7050   -3.1630   -0.8810 c3        1 MOL      0.105950
     43 C15        -6.4830   -4.2420   -1.9260 c         1 MOL      0.466971
     44 O9         -7.4310   -4.7360   -2.5790 o         1 MOL     -0.569382
     45 H17        -6.8530   -1.4750   -2.1810 hn        1 MOL      0.312868
     46 H18        -7.7720   -3.0910   -0.6640 h1        1 MOL      0.048090
     47 H19        -6.0890   -3.3830   -0.0100 h1        1 MOL      0.048090
     48 N5         -5.3430   -4.9000   -2.0380 n         1 MOL     -0.360957
     49 C16        -4.0820   -4.6280   -1.3150 c3        1 MOL     -0.012962
     50 C17        -4.1460   -5.0880    0.1670 c         1 MOL      0.476603
     51 O10        -4.3520   -6.2980    0.3960 o         1 MOL     -0.544180
     52 C18        -2.8350   -5.1040   -2.1800 c3        1 MOL     -0.042305
     53 C19        -1.4930   -4.5420   -1.7880 c         1 MOL      0.639146
     54 N6         -0.5710   -4.5110   -2.7850 n         1 MOL     -0.917381
     55 O11        -1.2280   -4.0540   -0.7390 o         1 MOL     -0.415505
     56 H20        -5.2520   -5.5100   -2.8440 hn        1 MOL      0.288612
     57 H21        -4.0000   -3.5500   -1.2220 h1        1 MOL      0.009727
     58 H22        -3.1210   -5.0240   -3.2330 hc        1 MOL      0.046972
     59 H23        -2.8190   -6.1960   -2.1450 hc        1 MOL      0.046972
     60 H24        -0.6610   -5.0580   -3.6260 hn        1 MOL      0.388792
     61 H25         0.3910   -4.4380   -2.4800 hn        1 MOL      0.388792
     62 N7         -3.9410   -4.1440    1.1080 n         1 MOL     -0.187505
     63 C20        -3.8440   -4.3480    2.5390 c3        1 MOL     -0.220084
     64 C21        -2.4140   -4.7890    3.0120 c         1 MOL      0.523618
     65 O12        -2.2800   -5.5580    3.9360 o         1 MOL     -0.542654
     66 H26        -3.9240   -3.2090    0.7560 hn        1 MOL      0.295616
     67 H27        -4.5490   -5.1000    2.8860 h1        1 MOL      0.100585
     68 H28        -4.0630   -3.4330    3.0890 h1        1 MOL      0.100585
     69 N8         -1.3780   -4.4740    2.1840 n         1 MOL     -0.188119
     70 C22         0.0030   -4.7690    2.5240 c3        1 MOL     -0.030511
     71 C23         0.9030   -3.6700    2.0650 c         1 MOL      0.275520
     72 O13         0.3850   -2.7940    1.4270 o         1 MOL     -0.379845
     73 C24         0.4160   -6.0940    1.7940 c3        1 MOL      0.215757
     74 C25        -0.5240   -7.2220    1.9850 c3        1 MOL     -0.347408
     75 O14         0.3510   -5.8580    0.4240 oh        1 MOL     -0.506264
     76 H29        -1.4780   -3.8580    1.3850 hn        1 MOL      0.123034
     77 H30         0.1200   -4.8600    3.6040 h1        1 MOL      0.061728
     78 H31         1.4160   -6.4530    2.0240 h1        1 MOL      0.059457
     79 H32        -0.2880   -5.2290    0.0900 ho        1 MOL      0.246736
     80 H33        -0.4580   -8.0620    1.2970 hc        1 MOL      0.089885
     81 H34        -0.3850   -7.5810    3.0010 hc        1 MOL      0.089885
     82 H35        -1.6100   -7.1110    1.9390 hc        1 MOL      0.089885
     83 N9          2.1620   -3.5560    2.5280 n         1 MOL     -0.078109
     84 C26         3.0700   -2.4280    2.3710 c3        1 MOL      0.007665
     85 C27         4.0680   -2.8940    1.3350 c         1 MOL      0.329934
     86 O15         4.7850   -3.8320    1.5510 o         1 MOL     -0.558288
     87 C28         3.5090   -1.8200    3.7270 c3        1 MOL      0.116553
     88 C29         4.8370   -1.0380    3.8020 c3        1 MOL     -0.107963
     89 C30         2.3280   -1.0430    4.3770 c3        1 MOL     -0.295618
     90 C31         4.8790    0.2160    2.9490 c3        1 MOL      0.063996
     91 H36         2.4330   -4.2950    3.1590 hn        1 MOL      0.172375
     92 H37         2.5970   -1.5660    1.8880 h1        1 MOL     -0.019337
     93 H38         3.5950   -2.6870    4.3910 hc        1 MOL     -0.005952
     94 H39         5.5980   -1.7010    3.3940 hc        1 MOL      0.026884
     95 H40         5.1690   -0.8140    4.8140 hc        1 MOL      0.026884
     96 H41         1.5190   -1.7740    4.4620 hc        1 MOL      0.072890
     97 H42         2.6500   -0.6600    5.3460 hc        1 MOL      0.072890
     98 H43         2.0420   -0.2790    3.6610 hc        1 MOL      0.072890
     99 H44         5.8780    0.6490    3.0060 hc        1 MOL     -0.001249
    100 H45         4.6280   -0.0350    1.9210 hc        1 MOL     -0.001249
    101 H46         4.1700    1.0180    3.1670 hc        1 MOL     -0.001249
    102 N10         4.0790   -2.2910    0.1660 n         1 MOL     -0.039207
    103 C32         4.8540   -2.6170   -1.0640 c3        1 MOL      0.272636
    104 C33         5.9480   -1.5620   -1.4850 c         1 MOL      0.296415
    105 O16         6.7260   -1.6690   -2.4370 o         1 MOL     -0.498074
    106 C34         3.8530   -2.9390   -2.1730 c3        1 MOL     -0.018642
    107 C35         2.7550   -3.9540   -1.8440 c         1 MOL      0.460949
    108 O17         3.0130   -5.2160   -1.9400 o         1 MOL     -0.597813
    109 O18         1.6910   -3.5000   -1.3080 o         1 MOL     -0.597813
    110 H47         3.4210   -1.5250    0.0700 hn        1 MOL      0.066180
    111 H48         5.3950   -3.5500   -0.9130 h1        1 MOL      0.031776
    112 H49         4.4860   -3.2900   -2.9940 hc        1 MOL     -0.030768
    113 H50         3.3690   -1.9830   -2.4130 hc        1 MOL     -0.030768
    114 N11         6.0090   -0.4700   -0.6810 n         1 MOL     -0.290356
    115 C36         7.0060    0.5850   -0.9120 c3        1 MOL      0.271141
    116 C37         6.4830    1.9960   -0.5670 c         1 MOL      0.306547
    117 O19         6.0120    2.1180    0.5850 o         1 MOL     -0.464002
    118 C38         8.2640    0.2120   -0.1300 c3        1 MOL     -0.350410
    119 C39         9.3790    1.2210   -0.1330 ca        1 MOL      0.095677
    120 C40         9.8080    1.8330    1.1020 ca        1 MOL     -0.138624
    121 C41         9.8940    1.7210   -1.3270 ca        1 MOL     -0.138624
    122 C42        10.7210    2.8960    1.0150 ca        1 MOL     -0.150730
    123 C43        10.9000    2.6310   -1.4010 ca        1 MOL     -0.150730
    124 C44        11.2620    3.2910   -0.2240 ca        1 MOL     -0.080252
    125 H51         5.3920   -0.4020    0.1240 hn        1 MOL      0.062275
    126 H52         7.2520    0.5910   -1.9710 h1        1 MOL      0.005249
    127 H53         8.7610   -0.6270   -0.6210 hc        1 MOL      0.144303
    128 H54         7.9110    0.0240    0.8810 hc        1 MOL      0.144303
    129 H55         9.4970    1.4300    2.0580 ha        1 MOL      0.129285
    130 H56         9.6000    1.1330   -2.1810 ha        1 MOL      0.129285
    131 H57        11.0610    3.3820    1.9190 ha        1 MOL      0.113424
    132 H58        11.3810    2.8940   -2.3330 ha        1 MOL      0.113424
    133 H59        12.0860    3.9900   -0.2420 ha        1 MOL      0.090912
    134 N12         6.6450    3.0810   -1.4240 n         1 MOL     -0.093295
    135 C45         6.2700    4.4870   -1.1740 c3        1 MOL      0.029544
    136 C46         4.9600    4.9190   -0.5030 c         1 MOL      0.340696
    137 O20         4.8580    6.0740   -0.1360 o         1 MOL     -0.534813
    138 C47         6.4210    5.2400   -2.5110 c3        1 MOL      0.071395
    139 C48         7.3390    4.4090   -3.3490 c3        1 MOL     -0.195579
    140 C49         7.1070    3.0120   -2.7920 c3        1 MOL      0.108960
    141 H60         7.1010    4.7960   -0.5340 h1        1 MOL      0.074723
    142 H61         5.4610    5.2960   -3.0210 hc        1 MOL      0.029027
    143 H62         6.8360    6.2340   -2.3630 hc        1 MOL      0.029027
    144 H63         7.0820    4.4360   -4.4150 hc        1 MOL      0.054264
    145 H64         8.3360    4.7340   -3.0740 hc        1 MOL      0.054264
    146 H65         6.2640    2.6790   -3.3880 h1        1 MOL      0.017683
    147 H66         7.9170    2.3200   -2.9860 h1        1 MOL      0.017683
    148 N13         3.9140    4.0990   -0.3550 n         1 MOL     -0.257980
    149 C50         2.5640    4.4120    0.1940 c3        1 MOL     -0.047075
    150 C51         2.5000    4.8970    1.6900 c         1 MOL      0.456891
    151 O21         1.5470    5.5130    2.0650 o         1 MOL     -0.510540
    152 C52         1.7210    3.1320    0.0090 c3        1 MOL     -0.144231
    153 C53         2.2260    1.9430    0.8630 c3        1 MOL     -0.027307
    154 C54         1.4430    0.7160    0.5430 c         1 MOL      0.736845
    155 O22         0.2230    0.6010    0.6840 o         1 MOL     -0.711575
    156 O23         2.0610   -0.2500   -0.0020 o         1 MOL     -0.711575
    157 H67         4.2190    3.1540   -0.5190 hn        1 MOL      0.158436
    158 H68         2.0180    5.1790   -0.3530 h1        1 MOL      0.125015
    159 H69         1.5370    2.9050   -1.0340 hc        1 MOL      0.075955
    160 H70         0.6920    3.3750    0.2830 hc        1 MOL      0.075955
    161 H71         2.0420    2.0550    1.9340 hc        1 MOL      0.012322
    162 H72         3.2990    1.7790    0.8020 hc        1 MOL      0.012322
    163 N14         3.6510    4.7390    2.3680 n         1 MOL     -0.054842
    164 C55         3.8910    5.2860    3.6770 c3        1 MOL     -0.275930
    165 H73         4.9590    5.2590    3.8910 h1        1 MOL      0.099106
    166 H74         3.5400    6.3170    3.7100 h1        1 MOL      0.099106
    167 H75         3.3570    4.6950    4.4210 h1        1 MOL      0.099106
    168 H76         4.3020    4.0620    1.9850 hn        1 MOL      0.162482
    169 Ca1         0.0890   -1.5730   -0.8950 Ca        1 MOL      1.687506
    170 O24        -2.0930   -1.4920    0.7600 oh        1 MOL     -0.923007
    171 H77        -2.8220   -1.3870    0.1490 ho        1 MOL      0.443445
    172 H78        -2.1440   -0.7380    1.3420 ho        1 MOL      0.443445
    173 O25         0.6090   -0.5470   -3.2900 oh        1 MOL     -0.923007
    174 H79        -0.1510   -0.2220   -3.7610 ho        1 MOL      0.443445
    175 H80         1.2470   -0.7360   -3.9820 ho        1 MOL      0.443445
@<TRIPOS>BOND
     1    1    2 1   
     2    1    4 1   
     3    1    5 1   
     4    1    6 1   
     5    2    3 2   
     6    2    7 1   
     7    7    8 1   
     8    7   15 1   
     9    8    9 1   
    10    8   11 1   
    11    8   16 1   
    12    9   10 2   
    13    9   19 1   
    14   11   12 1   
    15   11   17 1   
    16   11   18 1   
    17   12   13 1   
    18   12   14 1   
    19   19   20 1   
    20   19   24 1   
    21   20   21 1   
    22   20   23 1   
    23   20   25 1   
    24   21   22 2   
    25   21   29 1   
    26   23   26 1   
    27   23   27 1   
    28   23   28 1   
    29   29   30 1   
    30   29   37 1   
    31   30   31 1   
    32   30   33 1   
    33   30   38 1   
    34   31   32 2   
    35   31   41 1   
    36   33   34 1   
    37   33   39 1   
    38   33   40 1   
    39   34   35 1   
    40   34   36 1   
    41   41   42 1   
    42   41   45 1   
    43   42   43 1   
    44   42   46 1   
    45   42   47 1   
    46   43   44 2   
    47   43   48 1   
    48   48   49 1   
    49   48   56 1   
    50   49   50 1   
    51   49   52 1   
    52   49   57 1   
    53   50   51 2   
    54   50   62 1   
    55   52   53 1   
    56   52   58 1   
    57   52   59 1   
    58   53   54 1   
    59   53   55 2   
    60   54   60 1   
    61   54   61 1   
    62   62   63 1   
    63   62   66 1   
    64   63   64 1   
    65   63   67 1   
    66   63   68 1   
    67   64   65 2   
    68   64   69 1   
    69   69   70 1   
    70   69   76 1   
    71   70   71 1   
    72   70   73 1   
    73   70   77 1   
    74   71   72 2   
    75   71   83 1   
    76   73   74 1   
    77   73   75 1   
    78   73   78 1   
    79   74   80 1   
    80   74   81 1   
    81   74   82 1   
    82   75   79 1   
    83   83   84 1   
    84   83   91 1   
    85   84   85 1   
    86   84   87 1   
    87   84   92 1   
    88   85   86 2   
    89   85  102 1   
    90   87   88 1   
    91   87   89 1   
    92   87   93 1   
    93   88   90 1   
    94   88   94 1   
    95   88   95 1   
    96   89   96 1   
    97   89   97 1   
    98   89   98 1   
    99   90   99 1   
   100   90  100 1   
   101   90  101 1   
   102  102  103 1   
   103  102  110 1   
   104  103  104 1   
   105  103  106 1   
   106  103  111 1   
   107  104  105 2   
   108  104  114 1   
   109  106  107 1   
   110  106  112 1   
   111  106  113 1   
   112  107  108 1   
   113  107  109 1   
   114  114  115 1   
   115  114  125 1   
   116  115  116 1   
   117  115  118 1   
   118  115  126 1   
   119  116  117 2   
   120  116  134 1   
   121  118  119 1   
   122  118  127 1   
   123  118  128 1   
   124  119  120 ar  
   125  119  121 ar  
   126  120  122 ar  
   127  120  129 1   
   128  121  123 ar  
   129  121  130 1   
   130  122  124 ar  
   131  122  131 1   
   132  123  124 ar  
   133  123  132 1   
   134  124  133 1   
   135  134  135 1   
   136  134  140 1   
   137  135  136 1   
   138  135  138 1   
   139  135  141 1   
   140  136  137 2   
   141  136  148 1   
   142  138  139 1   
   143  138  142 1   
   144  138  143 1   
   145  139  140 1   
   146  139  144 1   
   147  139  145 1   
   148  140  146 1   
   149  140  147 1   
   150  148  149 1   
   151  148  157 1   
   152  149  150 1   
   153  149  152 1   
   154  149  158 1   
   155  150  151 2   
   156  150  163 1   
   157  152  153 1   
   158  152  159 1   
   159  152  160 1   
   160  153  154 1   
   161  153  161 1   
   162  153  162 1   
   163  154  155 1   
   164  154  156 1   
   165  163  164 1   
   166  163  168 1   
   167  164  165 1   
   168  164  166 1   
   169  164  167 1   
   170  170  171 1   
   171  170  172 1   
   172  173  174 1   
   173  173  175 1   
@<TRIPOS>SUBSTRUCTURE
     1 MOL         1 TEMP              0 ****  ****    0 ROOT
