@<TRIPOS>MOLECULE
MOL
  195   189     1     0     0
SMALL
resp


@<TRIPOS>ATOM
      1 C1         -6.2560   -3.8850    2.7850 c3        1 MOL     -0.062979
      2 C2         -5.1400   -3.1770    1.9750 c         1 MOL      0.616918
      3 O1         -4.7180   -2.0550    2.3150 o         1 MOL     -0.510169
      4 H1         -6.1120   -4.9650    2.7320 hc        1 MOL      0.003745
      5 H2         -6.2110   -3.5640    3.8250 hc        1 MOL      0.003745
      6 H3         -7.2290   -3.6280    2.3660 hc        1 MOL      0.003745
      7 N1         -4.6090   -3.8080    0.9560 n         1 MOL     -0.869332
      8 C3         -3.4930   -3.3150    0.1280 c3        1 MOL     -0.111871
      9 C4         -2.1950   -3.1450    0.9910 c         1 MOL      0.785798
     10 O2         -1.2750   -2.3880    0.7790 o         1 MOL     -0.579162
     11 C5         -3.9760   -2.1940   -0.7570 c3        1 MOL     -0.497925
     12 C6         -5.2710   -2.4910   -1.5240 c         1 MOL      0.816064
     13 O3         -6.2970   -1.8530   -1.3500 o         1 MOL     -0.693808
     14 O4         -5.2720   -3.2740   -2.5100 o         1 MOL     -0.693808
     15 H4         -4.8820   -4.7680    0.7940 hn        1 MOL      0.416053
     16 H5         -3.2140   -4.0680   -0.6160 h1        1 MOL      0.158245
     17 H6         -3.2080   -1.8440   -1.4420 hc        1 MOL      0.215026
     18 H7         -4.2180   -1.2860   -0.1990 hc        1 MOL      0.215026
     19 N2         -1.9900   -4.1220    1.8890 n         1 MOL     -0.586846
     20 C7         -0.8010   -4.5760    2.6060 c3        1 MOL      0.007789
     21 C8         -0.2860   -5.7980    1.8580 c         1 MOL      0.404291
     22 O5         -0.6750   -6.9370    2.1570 o         1 MOL     -0.575047
     23 C9         -1.0110   -4.7830    4.1670 c3        1 MOL      0.267544
     24 C10        -1.4500   -3.4170    4.7570 c3        1 MOL     -0.172610
     25 C11         0.2880   -5.3470    4.8320 c3        1 MOL     -0.227214
     26 C12        -1.5820   -3.3220    6.3150 c3        1 MOL     -0.163641
     27 H8         -2.6490   -4.8780    1.8660 hn        1 MOL      0.346255
     28 H9         -0.0650   -3.7920    2.4580 h1        1 MOL      0.102831
     29 H10        -1.8170   -5.5250    4.1960 hc        1 MOL     -0.056192
     30 H11        -2.4300   -3.1090    4.3720 hc        1 MOL      0.106315
     31 H12        -0.7000   -2.6860    4.4710 hc        1 MOL      0.106315
     32 H13         1.0140   -4.5630    4.6140 hc        1 MOL      0.050846
     33 H14         0.0510   -5.4060    5.8960 hc        1 MOL      0.050846
     34 H15         0.5660   -6.3020    4.3970 hc        1 MOL      0.050846
     35 H16        -0.5770   -3.3500    6.7320 hc        1 MOL      0.038122
     36 H17        -2.1820   -2.4710    6.6230 hc        1 MOL      0.038122
     37 H18        -2.1270   -4.1430    6.7960 hc        1 MOL      0.038122
     38 N3          0.6590   -5.7160    0.9160 n         1 MOL     -0.277921
     39 C13         1.3060   -4.5290    0.3560 c3        1 MOL     -0.087339
     40 C14         1.8610   -4.8270   -1.0250 c         1 MOL      0.476270
     41 O6          2.4580   -5.8500   -1.2400 o         1 MOL     -0.504572
     42 C15         2.4200   -4.0640    1.2440 c3        1 MOL     -0.022506
     43 C16         3.1480   -2.8980    0.6530 c         1 MOL      0.635382
     44 O7          4.1950   -3.1440    0.0450 o         1 MOL     -0.632967
     45 O8          2.8190   -1.7140    0.8940 o         1 MOL     -0.632967
     46 H19         0.9500   -6.5890    0.5220 hn        1 MOL      0.252076
     47 H20         0.5110   -3.8190    0.1260 h1        1 MOL      0.054108
     48 H21         3.1950   -4.8220    1.3200 hc        1 MOL      0.013234
     49 H22         2.1350   -3.9130    2.2840 hc        1 MOL      0.013234
     50 N4          1.7210   -3.8650   -1.9710 n         1 MOL     -0.373503
     51 C17         2.0380   -4.0270   -3.4240 c3        1 MOL     -0.190526
     52 C18         3.3670   -3.4320   -3.9440 c         1 MOL      0.614163
     53 O9          3.5600   -3.5410   -5.1290 o         1 MOL     -0.606285
     54 H23         1.2750   -2.9710   -1.7820 hn        1 MOL      0.335336
     55 H24         1.2640   -3.4700   -3.9480 h1        1 MOL      0.098104
     56 H25         2.0070   -5.0770   -3.6920 h1        1 MOL      0.098104
     57 N5          4.2190   -3.0540   -3.0500 n         1 MOL     -0.243185
     58 C19         5.5410   -2.4960   -3.4540 c3        1 MOL     -0.106262
     59 C20         6.7450   -2.6140   -2.4860 c         1 MOL      0.360705
     60 O10         7.8660   -2.9490   -2.9480 o         1 MOL     -0.576913
     61 C21         5.5420   -1.0120   -3.8680 c3        1 MOL      0.048088
     62 C22         4.6320   -0.2630   -3.0250 c         1 MOL      0.639806
     63 O11         5.1350    0.2180   -1.9620 o         1 MOL     -0.687133
     64 O12         3.4470   -0.0650   -3.4350 o         1 MOL     -0.687133
     65 H26         4.0250   -3.1680   -2.0690 hn        1 MOL      0.192989
     66 H27         5.8800   -2.9700   -4.3780 h1        1 MOL      0.084207
     67 H28         5.2190   -0.8170   -4.8930 hc        1 MOL     -0.026001
     68 H29         6.5570   -0.6010   -3.8250 hc        1 MOL     -0.026001
     69 N6          6.5430   -2.4070   -1.1860 n         1 MOL     -0.024957
     70 C23         7.5540   -2.4280   -0.1840 c3        1 MOL     -0.340527
     71 C24         8.1860   -1.0720    0.0490 c         1 MOL      0.664286
     72 O13         9.1900   -1.0060    0.7250 o         1 MOL     -0.628347
     73 H30         5.5820   -2.3880   -0.8900 hn        1 MOL      0.200552
     74 H31         8.3350   -3.1340   -0.4730 h1        1 MOL      0.118916
     75 H32         7.1230   -2.7910    0.7510 h1        1 MOL      0.118916
     76 N7          7.7180   -0.0280   -0.6140 n         1 MOL     -0.227369
     77 C25         8.2020    1.3550   -0.5520 c3        1 MOL      0.144658
     78 C26         8.0700    1.9920    0.8910 c         1 MOL      0.375206
     79 O14         8.8250    2.8640    1.3040 o         1 MOL     -0.509305
     80 C27         9.6000    1.5870   -1.2530 c3        1 MOL     -0.121473
     81 C28         9.4660    1.0760   -2.7120 c3        1 MOL     -0.024615
     82 C29        10.4330    1.7030   -3.6780 c         1 MOL      0.624272
     83 N8         10.8400    1.0400   -4.7730 n         1 MOL     -0.822260
     84 O15        10.9790    2.7890   -3.4420 o         1 MOL     -0.562740
     85 H33         6.7830   -0.1610   -0.9670 hn        1 MOL      0.114816
     86 H34         7.4390    1.8560   -1.1400 h1        1 MOL      0.064698
     87 H35        10.4310    1.0760   -0.7860 hc        1 MOL      0.044804
     88 H36         9.7400    2.6690   -1.2900 hc        1 MOL      0.044804
     89 H37         8.4620    1.2430   -3.1130 hc        1 MOL      0.022574
     90 H38         9.6170   -0.0080   -2.6770 hc        1 MOL      0.022574
     91 H39        10.3870    0.1520   -4.9590 hn        1 MOL      0.356555
     92 H40        11.5900    1.3820   -5.3570 hn        1 MOL      0.356555
     93 N9          7.0060    1.6890    1.6000 n         1 MOL     -0.232626
     94 C30         6.7740    2.0430    3.0050 c3        1 MOL     -0.310542
     95 C31         5.2620    2.2580    3.2910 c         1 MOL      0.618560
     96 O16         4.9180    2.8340    4.3470 o         1 MOL     -0.592844
     97 C32         7.4350    1.0140    4.0560 c3        1 MOL      0.298871
     98 C33         6.8700   -0.3490    3.9600 c3        1 MOL     -0.282481
     99 C34         8.9960    0.8830    3.9490 c3        1 MOL     -0.282481
    100 H41         6.4520    0.9110    1.2650 hn        1 MOL      0.268887
    101 H42         7.3330    2.9670    3.1430 h1        1 MOL      0.161338
    102 H43         7.2430    1.3530    5.0770 hc        1 MOL     -0.028156
    103 H44         7.2720   -1.0110    3.1970 hc        1 MOL      0.061970
    104 H45         7.0020   -0.8470    4.9210 hc        1 MOL      0.061970
    105 H46         5.8030   -0.1790    3.8060 hc        1 MOL      0.061970
    106 H47         9.3520    0.2890    4.7900 hc        1 MOL      0.061970
    107 H48         9.1470    0.3440    3.0220 hc        1 MOL      0.061970
    108 H49         9.4480    1.8730    3.8450 hc        1 MOL      0.061970
    109 N10         4.3730    1.9730    2.3380 n         1 MOL     -0.450994
    110 C35         2.9320    1.9530    2.5690 c3        1 MOL      0.508797
    111 C36         2.0760    2.3540    1.2940 c         1 MOL      0.410160
    112 O17         2.5770    2.2750    0.2250 o         1 MOL     -0.485367
    113 C37         2.4320    0.6790    3.3310 c3        1 MOL     -0.350298
    114 C38         0.9510    0.3100    3.1750 c         1 MOL      0.705050
    115 N11         0.7400   -0.8590    2.5950 n         1 MOL     -0.836313
    116 O18         0.0230    0.9700    3.6360 o         1 MOL     -0.615982
    117 H50         4.7280    1.7310    1.4270 hn        1 MOL      0.190019
    118 H51         2.6990    2.8400    3.1470 h1        1 MOL     -0.052746
    119 H52         2.6450    0.7700    4.3910 hc        1 MOL      0.068334
    120 H53         3.0710   -0.0830    2.8780 hc        1 MOL      0.068334
    121 H54         1.5340   -1.2540    2.1170 hn        1 MOL      0.368124
    122 H55        -0.1840   -1.2500    2.4870 hn        1 MOL      0.368124
    123 N12         0.7980    2.7790    1.3700 n         1 MOL     -0.497238
    124 C39        -0.0650    2.8970    0.1860 c3        1 MOL      0.224974
    125 C40        -1.2200    3.8800    0.4960 c         1 MOL      0.442965
    126 O19        -1.6230    4.0430    1.6430 o         1 MOL     -0.503155
    127 C41        -0.4860    1.5000   -0.1680 c3        1 MOL     -0.166568
    128 C42        -1.4670    1.3750   -1.2750 ca        1 MOL     -0.060331
    129 C43        -1.1620    1.6910   -2.6300 ca        1 MOL     -0.080021
    130 C44        -2.8350    1.0390   -0.9630 ca        1 MOL     -0.080021
    131 C45        -2.1110    1.6730   -3.6320 ca        1 MOL     -0.267825
    132 C46        -3.8110    1.0360   -1.9980 ca        1 MOL     -0.267825
    133 C47        -3.4540    1.2940   -3.3170 ca        1 MOL      0.274973
    134 O20        -4.3780    1.3000   -4.3170 oh        1 MOL     -0.451611
    135 H56         0.3770    2.9090    2.2690 hn        1 MOL      0.262716
    136 H57         0.4850    3.3440   -0.6450 h1        1 MOL      0.050213
    137 H58        -0.9390    1.0480    0.7160 hc        1 MOL      0.130820
    138 H59         0.3980    1.0250   -0.6010 hc        1 MOL      0.130820
    139 H60        -0.2210    2.1240   -2.9120 ha        1 MOL      0.129731
    140 H61        -3.1400    0.7970    0.0480 ha        1 MOL      0.129731
    141 H62        -1.8210    1.7250   -4.6700 ha        1 MOL      0.132769
    142 H63        -4.8100    0.7150   -1.7500 ha        1 MOL      0.132769
    143 H64        -4.0550    1.4790   -5.2000 ho        1 MOL      0.356714
    144 N13        -1.7790    4.5860   -0.5390 n         1 MOL     -0.443462
    145 C48        -2.7560    5.6940   -0.4160 c3        1 MOL      0.101075
    146 C49        -3.8820    5.6050   -1.4700 c         1 MOL      0.520719
    147 O21        -3.8430    6.2200   -2.5370 o         1 MOL     -0.571513
    148 C50        -2.0080    7.0130   -0.6390 c3        1 MOL      0.018352
    149 C51        -1.1340    7.4570    0.5500 c3        1 MOL     -0.270278
    150 C52        -0.9840    8.9910    0.4680 c         1 MOL      0.732070
    151 O22        -0.5450    9.5210   -0.5730 o         1 MOL     -0.687494
    152 O23        -1.3600    9.6750    1.4380 o         1 MOL     -0.687494
    153 H65        -1.1230    4.5920   -1.3040 hn        1 MOL      0.260045
    154 H66        -3.2280    5.6850    0.5680 h1        1 MOL      0.066754
    155 H67        -2.6770    7.8350   -0.8870 hc        1 MOL      0.032411
    156 H68        -1.4780    7.0580   -1.5940 hc        1 MOL      0.032411
    157 H69        -0.1280    7.0610    0.6940 hc        1 MOL      0.050810
    158 H70        -1.7090    7.1320    1.4240 hc        1 MOL      0.050810
    159 N14        -4.9400    4.8630   -1.2250 n         1 MOL     -0.432739
    160 C53        -5.1720    3.8630   -0.1280 c3        1 MOL     -0.141691
    161 C54        -5.4000    4.5560    1.2540 c         1 MOL      0.527054
    162 O24        -6.0510    5.6180    1.2930 o         1 MOL     -0.568901
    163 C55        -6.3850    3.0380   -0.5060 c3        1 MOL      0.271602
    164 C56        -6.4620    1.8480    0.3780 c3        1 MOL     -0.034020
    165 C57        -7.6260    0.9260   -0.1310 c         1 MOL      0.532304
    166 O25        -7.9000    0.8760   -1.3300 o         1 MOL     -0.700532
    167 O26        -8.2300    0.1910    0.6350 o         1 MOL     -0.700532
    168 H71        -5.7000    5.0420   -1.8660 hn        1 MOL      0.258503
    169 H72        -4.2970    3.2230   -0.1070 h1        1 MOL      0.076950
    170 H73        -6.2070    2.7150   -1.5390 hc        1 MOL     -0.021531
    171 H74        -7.2410    3.7140   -0.3930 hc        1 MOL     -0.021531
    172 H75        -6.6950    2.1880    1.3890 hc        1 MOL     -0.031435
    173 H76        -5.6040    1.1840    0.2860 hc        1 MOL     -0.031435
    174 N15        -4.8710    3.9490    2.2900 n         1 MOL     -0.176807
    175 C58        -5.1580    4.3480    3.7270 c3        1 MOL     -0.174100
    176 H77        -5.6630    5.3140    3.7410 h1        1 MOL      0.085555
    177 H78        -5.7970    3.5980    4.1930 h1        1 MOL      0.085555
    178 H79        -4.2210    4.4200    4.2780 h1        1 MOL      0.085555
    179 H80        -4.2140    3.2010    2.1240 hn        1 MOL      0.218782
    180 Ca1        -8.7750   -1.7270   -1.1340 Ca        1 MOL      1.672296
    181 O27       -10.7730   -0.1820   -2.0790 oh        1 MOL     -0.800296
    182 H81       -10.5880    0.6820   -2.4320 ho        1 MOL      0.381799
    183 H82       -11.6090   -0.0830   -1.6260 ho        1 MOL      0.381799
    184 O28       -10.7530   -2.1040    0.6170 oh        1 MOL     -0.800296
    185 H83       -11.6730   -2.3080    0.7840 ho        1 MOL      0.381799
    186 H84       -10.4110   -1.8350    1.4660 ho        1 MOL      0.381799
    187 O29        -7.8680   -4.0270   -2.4510 oh        1 MOL     -0.800296
    188 H85        -6.9680   -3.7090   -2.3600 ho        1 MOL      0.381799
    189 H86        -7.8430   -4.9230   -2.1240 ho        1 MOL      0.381799
    190 O30        -8.4920   -1.0670   -3.7450 oh        1 MOL     -0.800296
    191 H87        -7.7860   -1.4580   -4.2700 ho        1 MOL      0.381799
    192 H88        -8.3990   -0.1290   -3.8640 ho        1 MOL      0.381799
    193 O31       -10.9770   -3.3750   -1.8020 oh        1 MOL     -0.800296
    194 H89       -11.0030   -4.3270   -1.7540 ho        1 MOL      0.381799
    195 H90       -11.8150   -3.1380   -2.1970 ho        1 MOL      0.381799
@<TRIPOS>BOND
     1    1    2 1   
     2    1    4 1   
     3    1    5 1   
     4    1    6 1   
     5    2    3 2   
     6    2    7 1   
     7    7    8 1   
     8    7   15 1   
     9    8    9 1   
    10    8   11 1   
    11    8   16 1   
    12    9   10 2   
    13    9   19 1   
    14   11   12 1   
    15   11   17 1   
    16   11   18 1   
    17   12   13 1   
    18   12   14 1   
    19   19   20 1   
    20   19   27 1   
    21   20   21 1   
    22   20   23 1   
    23   20   28 1   
    24   21   22 2   
    25   21   38 1   
    26   23   24 1   
    27   23   25 1   
    28   23   29 1   
    29   24   26 1   
    30   24   30 1   
    31   24   31 1   
    32   25   32 1   
    33   25   33 1   
    34   25   34 1   
    35   26   35 1   
    36   26   36 1   
    37   26   37 1   
    38   38   39 1   
    39   38   46 1   
    40   39   40 1   
    41   39   42 1   
    42   39   47 1   
    43   40   41 2   
    44   40   50 1   
    45   42   43 1   
    46   42   48 1   
    47   42   49 1   
    48   43   44 1   
    49   43   45 1   
    50   50   51 1   
    51   50   54 1   
    52   51   52 1   
    53   51   55 1   
    54   51   56 1   
    55   52   53 2   
    56   52   57 1   
    57   57   58 1   
    58   57   65 1   
    59   58   59 1   
    60   58   61 1   
    61   58   66 1   
    62   59   60 2   
    63   59   69 1   
    64   61   62 1   
    65   61   67 1   
    66   61   68 1   
    67   62   63 1   
    68   62   64 1   
    69   69   70 1   
    70   69   73 1   
    71   70   71 1   
    72   70   74 1   
    73   70   75 1   
    74   71   72 2   
    75   71   76 1   
    76   76   77 1   
    77   76   85 1   
    78   77   78 1   
    79   77   80 1   
    80   77   86 1   
    81   78   79 2   
    82   78   93 1   
    83   80   81 1   
    84   80   87 1   
    85   80   88 1   
    86   81   82 1   
    87   81   89 1   
    88   81   90 1   
    89   82   83 1   
    90   82   84 2   
    91   83   91 1   
    92   83   92 1   
    93   93   94 1   
    94   93  100 1   
    95   94   95 1   
    96   94   97 1   
    97   94  101 1   
    98   95   96 2   
    99   95  109 1   
   100   97   98 1   
   101   97   99 1   
   102   97  102 1   
   103   98  103 1   
   104   98  104 1   
   105   98  105 1   
   106   99  106 1   
   107   99  107 1   
   108   99  108 1   
   109  109  110 1   
   110  109  117 1   
   111  110  111 1   
   112  110  113 1   
   113  110  118 1   
   114  111  112 2   
   115  111  123 1   
   116  113  114 1   
   117  113  119 1   
   118  113  120 1   
   119  114  115 1   
   120  114  116 2   
   121  115  121 1   
   122  115  122 1   
   123  123  124 1   
   124  123  135 1   
   125  124  125 1   
   126  124  127 1   
   127  124  136 1   
   128  125  126 2   
   129  125  144 1   
   130  127  128 1   
   131  127  137 1   
   132  127  138 1   
   133  128  129 ar  
   134  128  130 ar  
   135  129  131 ar  
   136  129  139 1   
   137  130  132 ar  
   138  130  140 1   
   139  131  133 ar  
   140  131  141 1   
   141  132  133 ar  
   142  132  142 1   
   143  133  134 1   
   144  134  143 1   
   145  144  145 1   
   146  144  153 1   
   147  145  146 1   
   148  145  148 1   
   149  145  154 1   
   150  146  147 2   
   151  146  159 1   
   152  148  149 1   
   153  148  155 1   
   154  148  156 1   
   155  149  150 1   
   156  149  157 1   
   157  149  158 1   
   158  150  151 1   
   159  150  152 1   
   160  159  160 1   
   161  159  168 1   
   162  160  161 1   
   163  160  163 1   
   164  160  169 1   
   165  161  162 2   
   166  161  174 1   
   167  163  164 1   
   168  163  170 1   
   169  163  171 1   
   170  164  165 1   
   171  164  172 1   
   172  164  173 1   
   173  165  166 1   
   174  165  167 1   
   175  174  175 1   
   176  174  179 1   
   177  175  176 1   
   178  175  177 1   
   179  175  178 1   
   180  181  182 1   
   181  181  183 1   
   182  184  185 1   
   183  184  186 1   
   184  187  188 1   
   185  187  189 1   
   186  190  191 1   
   187  190  192 1   
   188  193  194 1   
   189  193  195 1   
@<TRIPOS>SUBSTRUCTURE
     1 MOL         1 TEMP              0 ****  ****    0 ROOT
