@<TRIPOS>MOLECULE
MOL
  181   177     1     0     0
SMALL
resp


@<TRIPOS>ATOM
      1 C1         -7.2380    5.5410    4.9320 c3        1 MOL     -0.226995
      2 C2         -6.4840    4.2610    4.3890 c         1 MOL      0.631390
      3 O1         -5.4210    3.8800    4.8640 o         1 MOL     -0.543037
      4 H1         -6.8230    6.4320    4.4630 hc        1 MOL      0.056272
      5 H2         -8.2990    5.4670    4.6960 hc        1 MOL      0.056272
      6 H3         -7.1090    5.6070    6.0120 hc        1 MOL      0.056272
      7 N1         -7.1130    3.4670    3.4480 n         1 MOL     -0.561244
      8 C3         -8.3270    3.7060    2.7320 c3        1 MOL      0.161786
      9 C4         -8.0550    4.2670    1.3010 c         1 MOL      0.659911
     10 O2         -7.0250    4.8620    1.0650 o         1 MOL     -0.507314
     11 C5         -9.0660    2.3350    2.6970 c3        1 MOL     -0.109693
     12 C6         -8.2740    1.2440    1.9120 c         1 MOL      0.513284
     13 O3         -8.4120    1.1560    0.6770 o         1 MOL     -0.611961
     14 O4         -7.4890    0.5590    2.6130 o         1 MOL     -0.611961
     15 H4         -6.6190    2.6280    3.1930 hn        1 MOL      0.347765
     16 H5         -8.8960    4.4550    3.2840 h1        1 MOL      0.019605
     17 H6        -10.0520    2.4230    2.2460 hc        1 MOL     -0.003169
     18 H7         -9.1970    2.1040    3.7500 hc        1 MOL     -0.003169
     19 N2         -9.0540    4.2490    0.4580 n         1 MOL     -0.818700
     20 C7         -9.0470    4.7210   -0.9450 c3        1 MOL      0.635148
     21 C8         -7.8440    4.3500   -1.8620 c         1 MOL      0.097349
     22 O5         -7.3230    5.1780   -2.6030 o         1 MOL     -0.505088
     23 C9         -9.6680    6.1260   -1.0150 c3        1 MOL     -0.355545
     24 H8         -9.8080    3.6760    0.8070 hn        1 MOL      0.335552
     25 H9         -9.8290    4.2010   -1.4900 h1        1 MOL     -0.044469
     26 H10        -9.7650    6.5930   -1.9960 hc        1 MOL      0.078683
     27 H11       -10.6650    6.1670   -0.5720 hc        1 MOL      0.078683
     28 H12        -9.0740    6.8720   -0.4900 hc        1 MOL      0.078683
     29 N3         -7.2910    3.1710   -1.7970 n         1 MOL      0.096201
     30 C10        -6.1820    2.7100   -2.7020 c3        1 MOL      0.096344
     31 C11        -6.4980    1.1850   -3.1050 c         1 MOL      0.271455
     32 O6         -7.4260    0.5300   -2.6620 o         1 MOL     -0.503598
     33 C12        -4.8930    2.8440   -1.8310 c3        1 MOL     -0.334295
     34 C13        -4.7130    1.7790   -0.7230 c         1 MOL      0.725524
     35 O7         -5.5930    1.0450   -0.2820 o         1 MOL     -0.668237
     36 O8         -3.5890    1.6090   -0.2110 o         1 MOL     -0.668237
     37 H13        -7.6610    2.4750   -1.1720 hn        1 MOL     -0.028915
     38 H14        -6.0220    3.2820   -3.6170 h1        1 MOL      0.034989
     39 H15        -4.8070    3.9100   -1.6020 hc        1 MOL      0.108372
     40 H16        -4.1560    2.5420   -2.5680 hc        1 MOL      0.108372
     41 N4         -5.5710    0.6560   -3.9350 n         1 MOL     -0.162366
     42 C14        -5.7280   -0.6970   -4.4670 c3        1 MOL     -0.491377
     43 C15        -5.3250   -1.7550   -3.4120 c         1 MOL      0.728701
     44 O9         -5.6530   -1.5440   -2.2520 o         1 MOL     -0.588928
     45 H17        -4.8130    1.2580   -4.2190 hn        1 MOL      0.282553
     46 H18        -5.1110   -0.6550   -5.3740 h1        1 MOL      0.184427
     47 H19        -6.7720   -0.7910   -4.7560 h1        1 MOL      0.184427
     48 N5         -4.6510   -2.8810   -3.8210 n         1 MOL     -0.607468
     49 C16        -4.2140   -3.9220   -2.8340 c3        1 MOL      0.340200
     50 C17        -3.1000   -3.4730   -1.9160 c         1 MOL      0.635343
     51 O10        -2.2090   -2.6580   -2.3030 o         1 MOL     -0.512450
     52 C18        -3.7530   -5.2020   -3.5480 c3        1 MOL     -0.429469
     53 C19        -4.9050   -5.9010   -4.2250 c         1 MOL      0.794862
     54 N6         -5.9450   -6.2130   -3.4760 n         1 MOL     -0.781745
     55 O11        -4.8970   -6.1630   -5.4130 o         1 MOL     -0.574416
     56 H20        -4.4570   -3.0410   -4.8050 hn        1 MOL      0.332014
     57 H21        -5.0500   -4.2240   -2.1990 h1        1 MOL     -0.193367
     58 H22        -3.3370   -5.9170   -2.8330 hc        1 MOL      0.130402
     59 H23        -2.9790   -4.9870   -4.2810 hc        1 MOL      0.130402
     60 H24        -5.9370   -6.1180   -2.4660 hn        1 MOL      0.324964
     61 H25        -6.8350   -6.2980   -3.9520 hn        1 MOL      0.324964
     62 N7         -3.1000   -4.1790   -0.7750 n         1 MOL     -0.528076
     63 C20        -2.3120   -3.7980    0.4670 c3        1 MOL     -0.061829
     64 C21        -1.8150   -5.0570    1.2370 c         1 MOL      0.680937
     65 O12        -2.1720   -6.1810    0.9200 o         1 MOL     -0.581666
     66 H26        -3.8200   -4.8750   -0.6370 hn        1 MOL      0.282342
     67 H27        -2.9990   -3.2290    1.0980 h1        1 MOL      0.115697
     68 H28        -1.5030   -3.1300    0.1750 h1        1 MOL      0.115697
     69 N8         -1.0250   -4.9390    2.3350 n         1 MOL     -0.624534
     70 C22        -0.5040   -3.7200    2.9770 c3        1 MOL     -0.124022
     71 C23         0.7570   -3.2190    2.2450 c         1 MOL      0.597221
     72 O13         1.3960   -4.0490    1.6300 o         1 MOL     -0.504222
     73 C24        -0.1100   -4.1500    4.3880 c3        1 MOL      0.504995
     74 C25         0.0540   -3.0120    5.3910 c3        1 MOL     -0.345952
     75 O14        -1.1030   -4.8940    5.0470 oh        1 MOL     -0.636620
     76 H29        -0.9450   -5.8140    2.8320 hn        1 MOL      0.325693
     77 H30        -1.2680   -2.9420    2.9810 h1        1 MOL      0.103444
     78 H31         0.8030   -4.7480    4.3980 h1        1 MOL      0.004460
     79 H32        -0.9450   -5.8150    4.8390 ho        1 MOL      0.362234
     80 H33         0.3960   -3.3990    6.3520 hc        1 MOL      0.094438
     81 H34         0.8600   -2.3580    5.0670 hc        1 MOL      0.094438
     82 H35        -0.8630   -2.4450    5.5080 hc        1 MOL      0.094438
     83 N9          1.0680   -1.9390    2.4040 n         1 MOL     -0.583342
     84 C26         2.2150   -1.3160    1.7810 c3        1 MOL      0.157488
     85 C27         3.2310   -0.7710    2.7620 c         1 MOL      0.546592
     86 O15         2.8890   -0.1140    3.7220 o         1 MOL     -0.575880
     87 C28         1.7270   -0.2800    0.6900 c3        1 MOL      0.065179
     88 C29         0.8970    0.8880    1.1110 c3        1 MOL      0.304043
     89 C30         1.1780   -1.0970   -0.5460 c3        1 MOL     -0.268816
     90 C31         0.7960    1.9360    0.0340 c3        1 MOL     -0.234515
     91 H36         0.4480   -1.3300    2.9220 hn        1 MOL      0.253099
     92 H37         2.6730   -2.0630    1.1340 h1        1 MOL      0.070496
     93 H38         2.6780    0.1210    0.3380 hc        1 MOL     -0.051384
     94 H39         1.1640    1.2230    2.1070 hc        1 MOL     -0.074427
     95 H40        -0.0900    0.4360    1.1900 hc        1 MOL     -0.074427
     96 H41         1.0330   -0.4650   -1.4300 hc        1 MOL      0.084114
     97 H42         1.8560   -1.9170   -0.7730 hc        1 MOL      0.084114
     98 H43         0.2480   -1.6290   -0.3470 hc        1 MOL      0.084114
     99 H44         1.7880    2.2770   -0.2460 hc        1 MOL      0.047935
    100 H45         0.2570    1.5470   -0.8370 hc        1 MOL      0.047935
    101 H46         0.2830    2.7880    0.4730 hc        1 MOL      0.047935
    102 N10         4.5540   -0.7860    2.5460 n         1 MOL     -0.463942
    103 C32         5.2550   -1.5460    1.5180 c3        1 MOL      0.274704
    104 C33         6.5530   -0.7870    1.0530 c         1 MOL      0.494335
    105 O16         6.8560    0.1900    1.7400 o         1 MOL     -0.552614
    106 C34         5.5630   -3.0040    1.8750 c3        1 MOL     -0.022648
    107 C35         6.1810   -3.2850    3.2370 c         1 MOL      0.669964
    108 O17         7.4310   -3.2390    3.3320 o         1 MOL     -0.691125
    109 O18         5.4240   -3.5880    4.1780 o         1 MOL     -0.691125
    110 H47         5.1080   -0.1020    3.0500 hn        1 MOL      0.297765
    111 H48         4.5940   -1.5370    0.6490 h1        1 MOL     -0.048791
    112 H49         6.1520   -3.4250    1.0630 hc        1 MOL     -0.043538
    113 H50         4.6390   -3.5770    1.8850 hc        1 MOL     -0.043538
    114 N11         7.1980   -1.1810    0.0340 n         1 MOL     -0.755866
    115 C36         8.4490   -0.6620   -0.3710 c3        1 MOL      0.826249
    116 C37         8.4040   -0.2010   -1.8470 c         1 MOL      0.067777
    117 O19         7.6870   -0.7700   -2.6420 o         1 MOL     -0.472786
    118 C38         9.5510   -1.7480   -0.2430 c3        1 MOL     -0.116032
    119 C39        10.8930   -1.1580   -0.3600 ca        1 MOL      0.217607
    120 C40        11.5950   -0.9680   -1.5450 ca        1 MOL     -0.286022
    121 C41        11.4780   -0.7130    0.8670 ca        1 MOL     -0.286022
    122 C42        12.8110   -0.3380   -1.6070 ca        1 MOL     -0.033515
    123 C43        12.8120   -0.3140    0.7990 ca        1 MOL     -0.033515
    124 C44        13.4910   -0.0720   -0.3780 ca        1 MOL     -0.217398
    125 H51         6.6700   -1.6930   -0.6640 hn        1 MOL      0.349384
    126 H52         8.8080    0.2050    0.1880 h1        1 MOL     -0.097695
    127 H53         9.4730   -2.3740   -1.1390 hc        1 MOL      0.009238
    128 H54         9.4680   -2.2750    0.7020 hc        1 MOL      0.009238
    129 H55        10.9950   -1.2260   -2.4060 ha        1 MOL      0.169697
    130 H56        10.9110   -0.6930    1.7860 ha        1 MOL      0.169697
    131 H57        13.3420   -0.1270   -2.5300 ha        1 MOL      0.087044
    132 H58        13.4220   -0.1200    1.6610 ha        1 MOL      0.087044
    133 H59        14.4280    0.4520   -0.3550 ha        1 MOL      0.117612
    134 N12         9.0270    0.8520   -2.2530 n         1 MOL     -0.048908
    135 C45         9.7340    1.8920   -1.4430 c3        1 MOL     -0.009647
    136 C46         8.7510    2.7930   -0.6440 c         1 MOL      0.484564
    137 O20         9.2170    3.3150    0.4090 o         1 MOL     -0.559265
    138 C47        10.6280    2.7110   -2.3970 c3        1 MOL     -0.016520
    139 C48         9.8680    2.6510   -3.7470 c3        1 MOL     -0.147274
    140 C49         9.3090    1.2040   -3.6680 c3        1 MOL     -0.096743
    141 H60        10.4070    1.4160   -0.7310 h1        1 MOL      0.070231
    142 H61        10.8630    3.6940   -1.9940 hc        1 MOL      0.031811
    143 H62        11.5940    2.1980   -2.4520 hc        1 MOL      0.031811
    144 H63         8.9550    3.2440   -3.7270 hc        1 MOL      0.065903
    145 H64        10.4820    2.8020   -4.6270 hc        1 MOL      0.065903
    146 H65         8.4270    1.1650   -4.3080 h1        1 MOL      0.070867
    147 H66        10.0690    0.5190   -4.0420 h1        1 MOL      0.070867
    148 N13         7.5280    3.0500   -1.0940 n         1 MOL     -0.456956
    149 C50         6.4860    3.6860   -0.2500 c3        1 MOL      0.272175
    150 C51         6.5680    5.1910   -0.3140 c         1 MOL      0.440540
    151 O21         6.1240    5.7810   -1.2330 o         1 MOL     -0.546451
    152 C52         5.1480    3.2330   -0.8300 c3        1 MOL     -0.260079
    153 C53         4.9130    1.7160   -0.9250 c3        1 MOL      0.038567
    154 C54         3.9560    1.2940   -2.0770 c         1 MOL      0.746626
    155 O22         3.8340    0.1150   -2.4580 o         1 MOL     -0.680722
    156 O23         3.3340    2.1890   -2.7090 o         1 MOL     -0.680722
    157 H67         7.1880    2.6410   -1.9520 hn        1 MOL      0.385199
    158 H68         6.6100    3.3990    0.7920 h1        1 MOL      0.059509
    159 H69         5.0830    3.6490   -1.8380 hc        1 MOL      0.058201
    160 H70         4.4150    3.6340   -0.1370 hc        1 MOL      0.058201
    161 H71         4.6000    1.2730    0.0270 hc        1 MOL     -0.037559
    162 H72         5.8400    1.2080   -1.2140 hc        1 MOL     -0.037559
    163 N14         7.1690    5.8710    0.6580 n         1 MOL     -0.384426
    164 C55         7.8900    5.3260    1.9180 c3        1 MOL     -0.135157
    165 H73         8.5600    4.5160    1.6290 h1        1 MOL      0.079758
    166 H74         8.4670    6.1260    2.3820 h1        1 MOL      0.079758
    167 H75         7.1520    4.9510    2.6270 h1        1 MOL      0.079758
    168 H76         6.9720    6.8610    0.6120 hn        1 MOL      0.259193
    169 Ca1        -7.2280   -0.9060   -0.1040 Ca        1 MOL      1.717972
    170 O24        -7.1410   -3.6040   -0.4050 oh        1 MOL     -0.768093
    171 H77        -6.9880   -4.1840    0.3460 ho        1 MOL      0.364805
    172 H78        -7.2130   -4.1850   -1.1510 ho        1 MOL      0.364805
    173 O25        -5.2600   -1.7610    1.4760 oh        1 MOL     -0.768093
    174 H79        -5.3750   -2.0980    2.3600 ho        1 MOL      0.364805
    175 H80        -4.3230   -1.5800    1.4120 ho        1 MOL      0.364805
    176 O26        -8.9240   -2.2580    1.6710 oh        1 MOL     -0.768093
    177 H81        -9.5620   -1.6410    2.0370 ho        1 MOL      0.364805
    178 H82        -9.4500   -3.0200    1.4280 ho        1 MOL      0.364805
    179 O27        -9.3890   -1.7500   -1.3520 oh        1 MOL     -0.768093
    180 H83       -10.0900   -1.2460   -1.7760 ho        1 MOL      0.364805
    181 H84        -9.5420   -2.6560   -1.6170 ho        1 MOL      0.364805
@<TRIPOS>BOND
     1    1    2 1   
     2    1    4 1   
     3    1    5 1   
     4    1    6 1   
     5    2    3 2   
     6    2    7 1   
     7    7    8 1   
     8    7   15 1   
     9    8    9 1   
    10    8   11 1   
    11    8   16 1   
    12    9   10 2   
    13    9   19 1   
    14   11   12 1   
    15   11   17 1   
    16   11   18 1   
    17   12   13 1   
    18   12   14 1   
    19   19   20 1   
    20   19   24 1   
    21   20   21 1   
    22   20   23 1   
    23   20   25 1   
    24   21   22 2   
    25   21   29 1   
    26   23   26 1   
    27   23   27 1   
    28   23   28 1   
    29   29   30 1   
    30   29   37 1   
    31   30   31 1   
    32   30   33 1   
    33   30   38 1   
    34   31   32 2   
    35   31   41 1   
    36   33   34 1   
    37   33   39 1   
    38   33   40 1   
    39   34   35 1   
    40   34   36 1   
    41   41   42 1   
    42   41   45 1   
    43   42   43 1   
    44   42   46 1   
    45   42   47 1   
    46   43   44 2   
    47   43   48 1   
    48   48   49 1   
    49   48   56 1   
    50   49   50 1   
    51   49   52 1   
    52   49   57 1   
    53   50   51 2   
    54   50   62 1   
    55   52   53 1   
    56   52   58 1   
    57   52   59 1   
    58   53   54 1   
    59   53   55 2   
    60   54   60 1   
    61   54   61 1   
    62   62   63 1   
    63   62   66 1   
    64   63   64 1   
    65   63   67 1   
    66   63   68 1   
    67   64   65 2   
    68   64   69 1   
    69   69   70 1   
    70   69   76 1   
    71   70   71 1   
    72   70   73 1   
    73   70   77 1   
    74   71   72 2   
    75   71   83 1   
    76   73   74 1   
    77   73   75 1   
    78   73   78 1   
    79   74   80 1   
    80   74   81 1   
    81   74   82 1   
    82   75   79 1   
    83   83   84 1   
    84   83   91 1   
    85   84   85 1   
    86   84   87 1   
    87   84   92 1   
    88   85   86 2   
    89   85  102 1   
    90   87   88 1   
    91   87   89 1   
    92   87   93 1   
    93   88   90 1   
    94   88   94 1   
    95   88   95 1   
    96   89   96 1   
    97   89   97 1   
    98   89   98 1   
    99   90   99 1   
   100   90  100 1   
   101   90  101 1   
   102  102  103 1   
   103  102  110 1   
   104  103  104 1   
   105  103  106 1   
   106  103  111 1   
   107  104  105 2   
   108  104  114 1   
   109  106  107 1   
   110  106  112 1   
   111  106  113 1   
   112  107  108 1   
   113  107  109 1   
   114  114  115 1   
   115  114  125 1   
   116  115  116 1   
   117  115  118 1   
   118  115  126 1   
   119  116  117 2   
   120  116  134 1   
   121  118  119 1   
   122  118  127 1   
   123  118  128 1   
   124  119  120 ar  
   125  119  121 ar  
   126  120  122 ar  
   127  120  129 1   
   128  121  123 ar  
   129  121  130 1   
   130  122  124 ar  
   131  122  131 1   
   132  123  124 ar  
   133  123  132 1   
   134  124  133 1   
   135  134  135 1   
   136  134  140 1   
   137  135  136 1   
   138  135  138 1   
   139  135  141 1   
   140  136  137 2   
   141  136  148 1   
   142  138  139 1   
   143  138  142 1   
   144  138  143 1   
   145  139  140 1   
   146  139  144 1   
   147  139  145 1   
   148  140  146 1   
   149  140  147 1   
   150  148  149 1   
   151  148  157 1   
   152  149  150 1   
   153  149  152 1   
   154  149  158 1   
   155  150  151 2   
   156  150  163 1   
   157  152  153 1   
   158  152  159 1   
   159  152  160 1   
   160  153  154 1   
   161  153  161 1   
   162  153  162 1   
   163  154  155 1   
   164  154  156 1   
   165  163  164 1   
   166  163  168 1   
   167  164  165 1   
   168  164  166 1   
   169  164  167 1   
   170  170  171 1   
   171  170  172 1   
   172  173  174 1   
   173  173  175 1   
   174  176  177 1   
   175  176  178 1   
   176  179  180 1   
   177  179  181 1   
@<TRIPOS>SUBSTRUCTURE
     1 MOL         1 TEMP              0 ****  ****    0 ROOT
