@<TRIPOS>MOLECULE
MOL
  181   177     1     0     0
SMALL
resp


@<TRIPOS>ATOM
      1 C1         -5.0970   -3.0260   -2.7470 c3        1 MOL     -0.500700
      2 C2         -6.3110   -2.0580   -2.5810 c         1 MOL      0.662476
      3 O1         -6.2040   -0.8620   -2.7160 o         1 MOL     -0.569369
      4 H1         -4.7630   -3.0140   -3.7850 hc        1 MOL      0.137453
      5 H2         -4.2820   -2.7020   -2.0990 hc        1 MOL      0.137453
      6 H3         -5.3990   -4.0380   -2.4750 hc        1 MOL      0.137453
      7 N1         -7.5320   -2.5180   -2.3210 n         1 MOL     -0.402667
      8 C3         -8.7460   -1.7080   -2.3710 c3        1 MOL      0.039555
      9 C4         -8.8570   -0.9460   -1.0470 c         1 MOL      0.586794
     10 O2         -9.1470   -1.5050    0.0210 o         1 MOL     -0.499231
     11 C5        -10.0010   -2.5560   -2.7050 c3        1 MOL     -0.153923
     12 C6        -10.3090   -3.7500   -1.8470 c         1 MOL      0.707655
     13 O3         -9.4570   -4.6640   -1.6990 o         1 MOL     -0.720466
     14 O4        -11.4450   -3.7240   -1.3090 o         1 MOL     -0.720466
     15 H4         -7.7040   -3.5130   -2.2680 hn        1 MOL      0.238768
     16 H5         -8.6560   -0.9090   -3.1140 h1        1 MOL     -0.006166
     17 H6         -9.9720   -3.0220   -3.6850 hc        1 MOL      0.009238
     18 H7        -10.8630   -1.8880   -2.7090 hc        1 MOL      0.009238
     19 N2         -8.6800    0.3200   -1.2010 n         1 MOL     -0.587267
     20 C7         -8.1530    1.1770   -0.1800 c3        1 MOL      0.362476
     21 C8         -6.6880    0.7940    0.0500 c         1 MOL      0.402511
     22 O5         -5.7450    1.4670   -0.3910 o         1 MOL     -0.510059
     23 C9         -8.5100    2.5980   -0.5720 c3        1 MOL     -0.325092
     24 H8         -8.6240    0.6820   -2.1390 hn        1 MOL      0.336668
     25 H9         -8.6850    1.0390    0.7550 h1        1 MOL      0.006198
     26 H10        -8.1100    3.2780    0.1820 hc        1 MOL      0.073470
     27 H11        -8.2120    2.9870   -1.5490 hc        1 MOL      0.073470
     28 H12        -9.5900    2.7510   -0.5000 hc        1 MOL      0.073470
     29 N3         -6.4330   -0.3760    0.6480 n         1 MOL     -0.484353
     30 C10        -5.0770   -0.7230    1.1400 c3        1 MOL      0.188068
     31 C11        -4.7110   -0.0270    2.4270 c         1 MOL      0.341014
     32 O6         -5.5020    0.5680    3.2070 o         1 MOL     -0.471800
     33 C12        -5.0260   -2.2470    1.2090 c3        1 MOL      0.310799
     34 C13        -3.6860   -2.9400    1.3000 c         1 MOL      0.456621
     35 O7         -2.6540   -2.2730    1.2510 o         1 MOL     -0.695293
     36 O8         -3.7300   -4.2200    1.4140 o         1 MOL     -0.695293
     37 H13        -7.2400   -0.9240    0.8820 hn        1 MOL      0.221328
     38 H14        -4.4050   -0.4260    0.3330 h1        1 MOL      0.042510
     39 H15        -5.5560   -2.6740    0.3530 hc        1 MOL     -0.052803
     40 H16        -5.6310   -2.4890    2.0840 hc        1 MOL     -0.052803
     41 N4         -3.4370   -0.1440    2.7720 n         1 MOL     -0.288764
     42 C14        -2.8920    0.1460    4.1220 c3        1 MOL     -0.197404
     43 C15        -2.7210    1.6380    4.4150 c         1 MOL      0.430044
     44 O9         -3.2790    2.1590    5.3610 o         1 MOL     -0.518791
     45 H17        -2.8510   -0.6450    2.1160 hn        1 MOL      0.265568
     46 H18        -1.8710   -0.2490    4.0980 h1        1 MOL      0.085292
     47 H19        -3.4950   -0.3600    4.8750 h1        1 MOL      0.085292
     48 N5         -2.2070    2.4070    3.4760 n         1 MOL     -0.167398
     49 C16        -1.9270    3.8790    3.5720 c3        1 MOL      0.113152
     50 C17        -1.7880    4.4240    2.1600 c         1 MOL      0.492654
     51 O10        -1.9570    3.7630    1.1380 o         1 MOL     -0.479809
     52 C18        -0.6860    4.0620    4.4020 c3        1 MOL     -0.472190
     53 C19        -0.5560    5.4310    5.0710 c         1 MOL      0.809680
     54 N6          0.5820    5.6940    5.6050 n         1 MOL     -0.841246
     55 O11        -1.3220    6.3620    4.9500 o         1 MOL     -0.579440
     56 H20        -1.8500    1.9680    2.6390 hn        1 MOL      0.196016
     57 H21        -2.7790    4.3940    4.0210 h1        1 MOL      0.068427
     58 H22         0.1830    3.8790    3.7590 hc        1 MOL      0.122274
     59 H23        -0.6200    3.3830    5.2560 hc        1 MOL      0.122274
     60 H24         1.2800    4.9620    5.6980 hn        1 MOL      0.373394
     61 H25         0.8450    6.6620    5.6500 hn        1 MOL      0.373394
     62 N7         -1.6570    5.7600    2.0300 n         1 MOL     -0.383428
     63 C20        -1.4660    6.5880    0.8320 c3        1 MOL     -0.173187
     64 C21        -0.0730    6.4450    0.2280 c         1 MOL      0.667639
     65 O12         0.9680    6.3140    0.8480 o         1 MOL     -0.545539
     66 H26        -1.6200    6.2040    2.9430 hn        1 MOL      0.253405
     67 H27        -1.5900    7.6510    1.0370 h1        1 MOL      0.113405
     68 H28        -2.2330    6.2400    0.1280 h1        1 MOL      0.113405
     69 N8         -0.0190    6.6460   -1.0920 n         1 MOL     -0.414582
     70 C22         1.1770    6.8520   -1.8900 c3        1 MOL     -0.172643
     71 C23         1.7900    5.6710   -2.5030 c         1 MOL      0.508344
     72 O13         2.9810    5.7320   -2.8970 o         1 MOL     -0.598983
     73 C24         1.0000    8.0500   -2.8980 c3        1 MOL      0.322360
     74 C25        -0.0250    7.6480   -3.9100 c3        1 MOL     -0.261087
     75 O14         0.5090    9.1950   -2.2350 oh        1 MOL     -0.594549
     76 H29        -0.9000    6.8430   -1.5210 hn        1 MOL      0.224632
     77 H30         1.9470    7.2110   -1.2190 h1        1 MOL      0.154616
     78 H31         1.9620    8.3030   -3.3520 h1        1 MOL      0.075044
     79 H32        -0.4290    9.0930   -2.1330 ho        1 MOL      0.360438
     80 H33        -0.1260    8.3390   -4.7460 hc        1 MOL      0.064382
     81 H34         0.1850    6.6920   -4.4020 hc        1 MOL      0.064382
     82 H35        -1.0290    7.5430   -3.5040 hc        1 MOL      0.064382
     83 N9          1.1340    4.5180   -2.5660 n         1 MOL     -0.213410
     84 C26         1.7540    3.2170   -2.9180 c3        1 MOL     -0.078680
     85 C27         1.3610    2.1150   -1.9100 c         1 MOL      0.581383
     86 O15         0.3530    2.2030   -1.1600 o         1 MOL     -0.492445
     87 C28         1.3380    2.7690   -4.3430 c3        1 MOL      0.168585
     88 C29        -0.1300    2.5490   -4.4280 c3        1 MOL      0.235655
     89 C30         1.8890    3.6990   -5.4570 c3        1 MOL     -0.440678
     90 C31        -0.5610    1.6340   -5.5310 c3        1 MOL     -0.227339
     91 H36         0.1930    4.5870   -2.1940 hn        1 MOL      0.163980
     92 H37         2.8460    3.2770   -2.9810 h1        1 MOL      0.110729
     93 H38         1.7240    1.7590   -4.5210 hc        1 MOL     -0.021576
     94 H39        -0.6150    3.4840   -4.7120 hc        1 MOL     -0.031878
     95 H40        -0.5780    2.2500   -3.4750 hc        1 MOL     -0.031878
     96 H41         1.5790    3.4020   -6.4610 hc        1 MOL      0.103527
     97 H42         1.3580    4.6500   -5.3930 hc        1 MOL      0.103527
     98 H43         2.9580    3.8600   -5.3180 hc        1 MOL      0.103527
     99 H44        -1.6040    1.3570   -5.3930 hc        1 MOL      0.043038
    100 H45        -0.4390    2.0510   -6.5290 hc        1 MOL      0.043038
    101 H46         0.0250    0.7190   -5.4360 hc        1 MOL      0.043038
    102 N10         2.3060    1.2050   -1.7500 n         1 MOL     -0.673344
    103 C32         2.0510    0.1180   -0.8020 c3        1 MOL      0.278175
    104 C33         3.3290   -0.2560    0.0090 c         1 MOL      0.409789
    105 O16         3.3950   -1.2470    0.7240 o         1 MOL     -0.402083
    106 C34         1.5230   -1.1280   -1.4010 c3        1 MOL     -0.158103
    107 C35         0.7560   -1.9580   -0.3630 c         1 MOL      0.629657
    108 O17         0.3940   -1.5350    0.7800 o         1 MOL     -0.748677
    109 O18         0.4940   -3.1660   -0.6400 o         1 MOL     -0.748677
    110 H47         3.0920    1.0980   -2.3720 hn        1 MOL      0.308194
    111 H48         1.3540    0.5050   -0.0550 h1        1 MOL      0.080250
    112 H49         2.2770   -1.7450   -1.8930 hc        1 MOL      0.065709
    113 H50         0.8070   -0.7840   -2.1480 hc        1 MOL      0.065709
    114 N11         4.3000    0.6920   -0.0640 n         1 MOL     -0.501680
    115 C36         5.6220    0.3070    0.4970 c3        1 MOL      0.254665
    116 C37         6.3120   -0.7460   -0.4070 c         1 MOL      0.107199
    117 O19         6.2430   -0.5380   -1.6540 o         1 MOL     -0.435593
    118 C38         6.4410    1.5750    0.6400 c3        1 MOL     -0.285272
    119 C39         7.8270    1.3840    1.2170 ca        1 MOL      0.109793
    120 C40         7.9890    1.6210    2.6060 ca        1 MOL     -0.164503
    121 C41         8.9370    0.9190    0.4340 ca        1 MOL     -0.164503
    122 C42         9.2190    1.3350    3.2210 ca        1 MOL     -0.123193
    123 C43        10.2110    0.6340    1.0480 ca        1 MOL     -0.123193
    124 C44        10.2690    0.8310    2.4500 ca        1 MOL     -0.122625
    125 H51         4.1860    1.6280   -0.4310 hn        1 MOL      0.300861
    126 H52         5.4790   -0.0830    1.5080 h1        1 MOL      0.053680
    127 H53         5.8470    2.2320    1.2660 hc        1 MOL      0.113436
    128 H54         6.6170    2.0010   -0.3500 hc        1 MOL      0.113436
    129 H55         7.2580    2.1250    3.2170 ha        1 MOL      0.132143
    130 H56         8.8170    0.8040   -0.6360 ha        1 MOL      0.132143
    131 H57         9.3530    1.5050    4.2800 ha        1 MOL      0.119670
    132 H58        11.0460    0.1320    0.5960 ha        1 MOL      0.119670
    133 H59        11.1520    0.5110    2.9970 ha        1 MOL      0.096658
    134 N12         6.9990   -1.8210    0.1220 n         1 MOL      0.156615
    135 C45         7.7410   -2.8860   -0.6030 c3        1 MOL     -0.000437
    136 C46         6.8390   -3.7180   -1.3700 c         1 MOL      0.409729
    137 O20         7.2380   -4.3270   -2.3620 o         1 MOL     -0.555032
    138 C47         8.4670   -3.6510    0.4900 c3        1 MOL     -0.132364
    139 C48         7.6800   -3.4170    1.7630 c3        1 MOL      0.027612
    140 C49         7.3470   -1.9010    1.5630 c3        1 MOL     -0.261919
    141 H60         8.4860   -2.4700   -1.2840 h1        1 MOL      0.065473
    142 H61         8.5260   -4.7250    0.2860 hc        1 MOL      0.067747
    143 H62         9.4340   -3.1900    0.6540 hc        1 MOL      0.067747
    144 H63         6.7710   -4.0010    1.6440 hc        1 MOL      0.023530
    145 H64         8.3050   -3.7140    2.6130 hc        1 MOL      0.023530
    146 H65         6.5210   -1.5770    2.1900 h1        1 MOL      0.095184
    147 H66         8.2430   -1.3300    1.8160 h1        1 MOL      0.095184
    148 N13         5.5120   -3.8110   -1.0440 n         1 MOL     -0.120462
    149 C50         4.4690   -4.6020   -1.7940 c3        1 MOL     -0.316559
    150 C51         4.0930   -4.0140   -3.1760 c         1 MOL      0.487609
    151 O21         3.3650   -4.5690   -3.9310 o         1 MOL     -0.519625
    152 C52         3.2710   -4.8670   -0.8750 c3        1 MOL      0.263639
    153 C53         3.5700   -5.5600    0.4330 c3        1 MOL     -0.254052
    154 C54         2.2170   -5.8860    1.1200 c         1 MOL      0.755460
    155 O22         1.8190   -5.0170    1.9160 o         1 MOL     -0.736538
    156 O23         1.6400   -6.9170    0.7560 o         1 MOL     -0.736538
    157 H67         5.1640   -3.3090   -0.2400 hn        1 MOL      0.171658
    158 H68         4.9130   -5.5690   -2.0130 h1        1 MOL      0.147605
    159 H69         2.5300   -5.4500   -1.4330 hc        1 MOL     -0.004349
    160 H70         2.7290   -3.9760   -0.5510 hc        1 MOL     -0.004349
    161 H71         4.2220   -4.9090    1.0160 hc        1 MOL      0.011939
    162 H72         4.0990   -6.4880    0.2240 hc        1 MOL      0.011939
    163 N14         4.6330   -2.8340   -3.5800 n         1 MOL     -0.067683
    164 C55         4.4460   -2.2440   -4.8790 c3        1 MOL     -0.228496
    165 H73         4.3170   -3.0340   -5.6210 h1        1 MOL      0.083566
    166 H74         3.5600   -1.6100   -4.8670 h1        1 MOL      0.083566
    167 H75         5.3200   -1.6440   -5.1360 h1        1 MOL      0.083566
    168 H76         5.2350   -2.3980   -2.9020 hn        1 MOL      0.110935
    169 Ca1        -0.6450   -3.8350    1.6190 Ca        1 MOL      1.773244
    170 O24        -0.9530   -5.9960    0.0370 oh        1 MOL     -0.798891
    171 H77        -1.1770   -6.3300   -0.8360 ho        1 MOL      0.396696
    172 H78        -0.1730   -6.4830    0.2920 ho        1 MOL      0.396696
    173 O25        -2.2390   -3.7510    4.0500 oh        1 MOL     -0.798891
    174 H79        -2.7950   -3.0070    4.3120 ho        1 MOL      0.396696
    175 H80        -2.7530   -4.5190    4.2920 ho        1 MOL      0.396696
    176 O26        -0.9010   -6.2430    3.1250 oh        1 MOL     -0.798891
    177 H81        -1.3330   -6.9940    2.7220 ho        1 MOL      0.396696
    178 H82        -0.3940   -6.6190    3.8450 ho        1 MOL      0.396696
    179 O27         0.2470   -2.2870    3.7240 oh        1 MOL     -0.798891
    180 H83        -0.4490   -2.4500    4.3580 ho        1 MOL      0.396696
    181 H84         0.5240   -1.3920    3.8940 ho        1 MOL      0.396696
@<TRIPOS>BOND
     1    1    2 1   
     2    1    4 1   
     3    1    5 1   
     4    1    6 1   
     5    2    3 2   
     6    2    7 1   
     7    7    8 1   
     8    7   15 1   
     9    8    9 1   
    10    8   11 1   
    11    8   16 1   
    12    9   10 2   
    13    9   19 1   
    14   11   12 1   
    15   11   17 1   
    16   11   18 1   
    17   12   13 1   
    18   12   14 1   
    19   19   20 1   
    20   19   24 1   
    21   20   21 1   
    22   20   23 1   
    23   20   25 1   
    24   21   22 2   
    25   21   29 1   
    26   23   26 1   
    27   23   27 1   
    28   23   28 1   
    29   29   30 1   
    30   29   37 1   
    31   30   31 1   
    32   30   33 1   
    33   30   38 1   
    34   31   32 2   
    35   31   41 1   
    36   33   34 1   
    37   33   39 1   
    38   33   40 1   
    39   34   35 1   
    40   34   36 1   
    41   41   42 1   
    42   41   45 1   
    43   42   43 1   
    44   42   46 1   
    45   42   47 1   
    46   43   44 2   
    47   43   48 1   
    48   48   49 1   
    49   48   56 1   
    50   49   50 1   
    51   49   52 1   
    52   49   57 1   
    53   50   51 2   
    54   50   62 1   
    55   52   53 1   
    56   52   58 1   
    57   52   59 1   
    58   53   54 1   
    59   53   55 2   
    60   54   60 1   
    61   54   61 1   
    62   62   63 1   
    63   62   66 1   
    64   63   64 1   
    65   63   67 1   
    66   63   68 1   
    67   64   65 2   
    68   64   69 1   
    69   69   70 1   
    70   69   76 1   
    71   70   71 1   
    72   70   73 1   
    73   70   77 1   
    74   71   72 2   
    75   71   83 1   
    76   73   74 1   
    77   73   75 1   
    78   73   78 1   
    79   74   80 1   
    80   74   81 1   
    81   74   82 1   
    82   75   79 1   
    83   83   84 1   
    84   83   91 1   
    85   84   85 1   
    86   84   87 1   
    87   84   92 1   
    88   85   86 2   
    89   85  102 1   
    90   87   88 1   
    91   87   89 1   
    92   87   93 1   
    93   88   90 1   
    94   88   94 1   
    95   88   95 1   
    96   89   96 1   
    97   89   97 1   
    98   89   98 1   
    99   90   99 1   
   100   90  100 1   
   101   90  101 1   
   102  102  103 1   
   103  102  110 1   
   104  103  104 1   
   105  103  106 1   
   106  103  111 1   
   107  104  105 2   
   108  104  114 1   
   109  106  107 1   
   110  106  112 1   
   111  106  113 1   
   112  107  108 1   
   113  107  109 1   
   114  114  115 1   
   115  114  125 1   
   116  115  116 1   
   117  115  118 1   
   118  115  126 1   
   119  116  117 2   
   120  116  134 1   
   121  118  119 1   
   122  118  127 1   
   123  118  128 1   
   124  119  120 ar  
   125  119  121 ar  
   126  120  122 ar  
   127  120  129 1   
   128  121  123 ar  
   129  121  130 1   
   130  122  124 ar  
   131  122  131 1   
   132  123  124 ar  
   133  123  132 1   
   134  124  133 1   
   135  134  135 1   
   136  134  140 1   
   137  135  136 1   
   138  135  138 1   
   139  135  141 1   
   140  136  137 2   
   141  136  148 1   
   142  138  139 1   
   143  138  142 1   
   144  138  143 1   
   145  139  140 1   
   146  139  144 1   
   147  139  145 1   
   148  140  146 1   
   149  140  147 1   
   150  148  149 1   
   151  148  157 1   
   152  149  150 1   
   153  149  152 1   
   154  149  158 1   
   155  150  151 2   
   156  150  163 1   
   157  152  153 1   
   158  152  159 1   
   159  152  160 1   
   160  153  154 1   
   161  153  161 1   
   162  153  162 1   
   163  154  155 1   
   164  154  156 1   
   165  163  164 1   
   166  163  168 1   
   167  164  165 1   
   168  164  166 1   
   169  164  167 1   
   170  170  171 1   
   171  170  172 1   
   172  173  174 1   
   173  173  175 1   
   174  176  177 1   
   175  176  178 1   
   176  179  180 1   
   177  179  181 1   
@<TRIPOS>SUBSTRUCTURE
     1 MOL         1 TEMP              0 ****  ****    0 ROOT
