@<TRIPOS>MOLECULE
MOL
  178   175     1     0     0
SMALL
resp


@<TRIPOS>ATOM
      1 C1         11.6540   -6.7390   -1.0140 c3        1 MOL     -0.421010
      2 C2         10.8610   -5.4670   -1.3600 c         1 MOL      0.656746
      3 O1          9.7620   -5.6240   -1.9700 o         1 MOL     -0.566292
      4 H1         12.5110   -6.4740   -0.3940 hc        1 MOL      0.101610
      5 H2         11.0120   -7.4300   -0.4690 hc        1 MOL      0.101610
      6 H3         12.0030   -7.2110   -1.9320 hc        1 MOL      0.101610
      7 N1         11.2310   -4.2540   -0.9660 n         1 MOL     -0.510789
      8 C3         12.3250   -3.9090   -0.0990 c3        1 MOL      0.318315
      9 C4         13.2250   -2.7760   -0.5390 c         1 MOL      0.294099
     10 O2         14.2740   -2.5830    0.1070 o         1 MOL     -0.515124
     11 C5         11.7660   -3.5780    1.3120 c3        1 MOL     -0.319286
     12 C6         10.6600   -2.4720    1.2840 c         1 MOL      0.779405
     13 O3          9.4870   -2.7870    1.6360 o         1 MOL     -0.774593
     14 O4         10.9960   -1.3620    0.8920 o         1 MOL     -0.774593
     15 H4         10.6400   -3.5010   -1.2930 hn        1 MOL      0.311961
     16 H5         13.0130   -4.7200    0.1050 h1        1 MOL     -0.000829
     17 H6         12.5270   -3.2130    1.9990 hc        1 MOL      0.072323
     18 H7         11.3260   -4.5220    1.6160 hc        1 MOL      0.072323
     19 N2         12.7850   -2.0280   -1.5670 n         1 MOL     -0.307190
     20 C7         13.3520   -0.7410   -1.9490 c3        1 MOL      0.317131
     21 C8         12.3310    0.3280   -2.2620 c         1 MOL      0.517012
     22 O5         12.4750    1.1050   -3.2400 o         1 MOL     -0.552934
     23 C9         14.4740   -0.9980   -3.0370 c3        1 MOL     -0.309705
     24 H8         11.9850   -2.3950   -2.0700 hn        1 MOL      0.183549
     25 H9         13.8450   -0.3370   -1.0630 h1        1 MOL      0.016915
     26 H10        14.9130   -0.1080   -3.4920 hc        1 MOL      0.067462
     27 H11        15.2990   -1.4560   -2.4990 hc        1 MOL      0.067462
     28 H12        14.1080   -1.6370   -3.8350 hc        1 MOL      0.067462
     29 N3         11.2490    0.3450   -1.4390 n         1 MOL     -0.629947
     30 C10         9.9980    1.0270   -1.8130 c3        1 MOL      0.125749
     31 C11         9.3810    1.8030   -0.6430 c         1 MOL      0.627820
     32 O6          9.4950    1.4150    0.5160 o         1 MOL     -0.643368
     33 C12         8.9180    0.0560   -2.4150 c3        1 MOL     -0.161284
     34 C13         8.7870   -1.2280   -1.6400 c         1 MOL      0.745051
     35 O7          9.2770   -2.2770   -2.1610 o         1 MOL     -0.677907
     36 O8          8.0350   -1.2620   -0.6360 o         1 MOL     -0.677907
     37 H13        11.1700   -0.2800   -0.6450 hn        1 MOL      0.428268
     38 H14        10.3460    1.7550   -2.5510 h1        1 MOL      0.021244
     39 H15         9.3020   -0.2000   -3.4090 hc        1 MOL      0.039142
     40 H16         7.9740    0.5440   -2.6440 hc        1 MOL      0.039142
     41 N4          8.5740    2.7700   -0.9880 n         1 MOL     -0.528219
     42 C14         7.6780    3.4670   -0.0490 c3        1 MOL      0.024035
     43 C15         6.6130    2.5490    0.4740 c         1 MOL      0.551450
     44 O9          6.6620    1.3010    0.3020 o         1 MOL     -0.539059
     45 H17         8.4400    2.9460   -1.9790 hn        1 MOL      0.308365
     46 H18         7.1990    4.3850   -0.3880 h1        1 MOL      0.075870
     47 H19         8.2930    3.8250    0.7760 h1        1 MOL      0.075870
     48 N5          5.6340    3.0980    1.1670 n         1 MOL     -0.406177
     49 C16         4.4770    2.5170    1.8770 c3        1 MOL     -0.025520
     50 C17         3.1630    3.3610    1.7020 c         1 MOL      0.581076
     51 O10         3.2400    4.6150    1.8340 o         1 MOL     -0.536319
     52 C18         4.7720    2.5050    3.3610 c3        1 MOL      0.112725
     53 C19         5.7890    1.5550    3.9500 c         1 MOL      0.594406
     54 N6          5.9210    1.5410    5.2420 n         1 MOL     -0.554603
     55 O11         6.5490    0.8710    3.2720 o         1 MOL     -0.773985
     56 H20         5.6900    4.0920    1.3240 hn        1 MOL      0.231747
     57 H21         4.1850    1.5440    1.4790 h1        1 MOL      0.112194
     58 H22         3.7920    2.2480    3.7630 hc        1 MOL      0.000744
     59 H23         5.0310    3.5060    3.7120 hc        1 MOL      0.000744
     60 H24         5.2750    2.0620    5.8110 hn        1 MOL      0.258927
     61 H25         6.7440    1.0810    5.5940 hn        1 MOL      0.258927
     62 N7          2.0110    2.7140    1.4680 n         1 MOL     -0.642185
     63 C20         0.7410    3.4110    1.0980 c3        1 MOL      0.187173
     64 C21         0.4070    3.4660   -0.3530 c         1 MOL      0.584035
     65 O12         1.1370    2.8550   -1.1520 o         1 MOL     -0.559271
     66 H26         2.0740    1.7140    1.3410 hn        1 MOL      0.367059
     67 H27         0.7620    4.3850    1.5790 h1        1 MOL      0.065664
     68 H28        -0.1270    2.8890    1.5120 h1        1 MOL      0.065664
     69 N8         -0.6370    4.1590   -0.7540 n         1 MOL     -0.501093
     70 C22        -1.6580    4.8830    0.0470 c3        1 MOL     -0.186996
     71 C23        -3.1050    4.3940   -0.2830 c         1 MOL      0.704894
     72 O13        -4.0220    4.8920    0.3380 o         1 MOL     -0.607964
     73 C24        -1.6260    6.3470   -0.2440 c3        1 MOL      0.479511
     74 C25        -0.2630    6.9180   -0.0860 c3        1 MOL     -0.424966
     75 O14        -2.0440    6.5190   -1.6300 oh        1 MOL     -0.632703
     76 H29        -0.8240    4.1350   -1.7470 hn        1 MOL      0.333140
     77 H30        -1.5280    4.7420    1.1210 h1        1 MOL      0.088572
     78 H31        -2.3400    6.9580    0.3050 h1        1 MOL     -0.005908
     79 H32        -2.9600    6.7820   -1.6830 ho        1 MOL      0.386372
     80 H33         0.2870    6.5600    0.7880 hc        1 MOL      0.107188
     81 H34         0.2310    6.6880   -1.0310 hc        1 MOL      0.107188
     82 H35        -0.3230    8.0100   -0.0750 hc        1 MOL      0.107188
     83 N9         -3.3140    3.4910   -1.2310 n         1 MOL     -0.500777
     84 C26        -4.6180    2.9160   -1.5810 c3        1 MOL     -0.018626
     85 C27        -4.6200    1.3360   -1.2160 c         1 MOL      0.560312
     86 O15        -3.7700    0.5440   -1.7000 o         1 MOL     -0.544731
     87 C28        -5.0300    3.1430   -3.0680 c3        1 MOL      0.198486
     88 C29        -4.9400    4.6330   -3.5080 c3        1 MOL      0.007206
     89 C30        -6.4630    2.6710   -3.3270 c3        1 MOL      0.038557
     90 C31        -5.2860    4.9240   -4.9760 c3        1 MOL     -0.256416
     91 H36        -2.4680    3.2210   -1.7040 hn        1 MOL      0.253558
     92 H37        -5.4390    3.3290   -0.9950 h1        1 MOL      0.068787
     93 H38        -4.4080    2.4810   -3.6640 hc        1 MOL      0.009616
     94 H39        -3.9130    4.9400   -3.3180 hc        1 MOL     -0.013299
     95 H40        -5.5240    5.2540   -2.8380 hc        1 MOL     -0.013299
     96 H41        -6.6030    2.6240   -4.4070 hc        1 MOL     -0.005216
     97 H42        -6.5410    1.6370   -2.9980 hc        1 MOL     -0.005216
     98 H43        -7.2700    3.3020   -2.9450 hc        1 MOL     -0.005216
     99 H44        -4.9610    5.9090   -5.3040 hc        1 MOL      0.058139
    100 H45        -4.8230    4.1600   -5.6120 hc        1 MOL      0.058139
    101 H46        -6.3520    4.7930   -5.1800 hc        1 MOL      0.058139
    102 N10        -5.5660    0.8680   -0.3710 n         1 MOL     -0.402996
    103 C32        -6.7350    1.5290    0.2310 c3        1 MOL     -0.005172
    104 C33        -7.6560    0.3670    0.6500 c         1 MOL      0.461439
    105 O16        -7.3210   -0.6570    1.2030 o         1 MOL     -0.447171
    106 C34        -6.4220    2.2640    1.4660 c3        1 MOL     -0.070505
    107 C35        -5.8060    1.5360    2.6800 c         1 MOL      0.669840
    108 O17        -4.5670    1.5360    2.8200 o         1 MOL     -0.691814
    109 O18        -6.5480    1.0520    3.5860 o         1 MOL     -0.691814
    110 H47        -5.4210   -0.1130   -0.1960 hn        1 MOL      0.294607
    111 H48        -7.3250    2.1960   -0.3980 h1        1 MOL      0.068035
    112 H49        -7.3300    2.7290    1.8610 hc        1 MOL      0.002186
    113 H50        -5.6880    3.0410    1.2610 hc        1 MOL      0.002186
    114 N11        -8.9800    0.5270    0.4140 n         1 MOL     -0.583461
    115 C36       -10.1200   -0.2930    0.7810 c3        1 MOL      0.620143
    116 C37       -10.9060   -0.6830   -0.4870 c         1 MOL     -0.050838
    117 O19       -10.9710    0.1710   -1.4120 o         1 MOL     -0.458187
    118 C38       -11.0980    0.4240    1.7610 c3        1 MOL     -0.195966
    119 C39       -12.2410   -0.4110    2.2440 ca        1 MOL      0.140159
    120 C40       -13.5100   -0.2420    1.6680 ca        1 MOL     -0.180714
    121 C41       -12.1180   -1.2500    3.4050 ca        1 MOL     -0.180714
    122 C42       -14.6230   -0.9350    2.2100 ca        1 MOL     -0.135514
    123 C43       -13.2630   -1.8840    3.9200 ca        1 MOL     -0.135514
    124 C44       -14.5400   -1.7620    3.3860 ca        1 MOL     -0.112666
    125 H51        -9.2450    1.4250    0.0290 hn        1 MOL      0.298695
    126 H52        -9.7410   -1.2030    1.2320 h1        1 MOL     -0.036047
    127 H53       -11.4320    1.3310    1.2700 hc        1 MOL      0.045531
    128 H54       -10.4750    0.7720    2.5910 hc        1 MOL      0.045531
    129 H55       -13.6760    0.3910    0.8030 ha        1 MOL      0.140666
    130 H56       -11.1990   -1.2060    3.9680 ha        1 MOL      0.140666
    131 H57       -15.5430   -0.8890    1.6520 ha        1 MOL      0.104500
    132 H58       -13.0910   -2.4130    4.8490 ha        1 MOL      0.104500
    133 H59       -15.4070   -2.2580    3.8110 ha        1 MOL      0.103219
    134 N12       -11.5130   -1.8940   -0.6320 n         1 MOL      0.278979
    135 C45       -11.4470   -3.0950    0.2800 c3        1 MOL      0.004729
    136 C46       -10.0170   -3.6020    0.1820 c         1 MOL      0.522398
    137 O20        -9.5030   -3.9270    1.2470 o         1 MOL     -0.591623
    138 C47       -12.4520   -4.1500   -0.2590 c3        1 MOL     -0.307097
    139 C48       -12.8970   -3.7130   -1.5780 c3        1 MOL      0.103286
    140 C49       -12.4670   -2.2170   -1.6760 c3        1 MOL     -0.249530
    141 H60       -11.6850   -2.8570    1.3110 h1        1 MOL      0.068994
    142 H61       -11.8710   -5.0730   -0.3280 hc        1 MOL      0.095179
    143 H62       -13.3560   -4.0990    0.3500 hc        1 MOL      0.095179
    144 H63       -12.3380   -4.2690   -2.3330 hc        1 MOL      0.008100
    145 H64       -13.9680   -3.7860   -1.7750 hc        1 MOL      0.008100
    146 H65       -11.9080   -1.9000   -2.5520 h1        1 MOL      0.073204
    147 H66       -13.3740   -1.6220   -1.6440 h1        1 MOL      0.073204
    148 N13        -9.2920   -3.4210   -0.8990 n         1 MOL     -0.524869
    149 C50        -7.8810   -3.7420   -0.9050 c3        1 MOL      0.423806
    150 C51        -7.4920   -5.2170   -0.8950 c         1 MOL      0.430644
    151 O21        -7.5920   -5.9400   -1.8180 o         1 MOL     -0.557002
    152 C52        -7.3210   -3.0970   -2.1430 c3        1 MOL     -0.139681
    153 C53        -7.7100   -1.5970   -2.4270 c3        1 MOL      0.039952
    154 C54        -7.3770   -1.0150   -3.7910 c         1 MOL      0.633327
    155 O22        -6.3030   -1.1830   -4.4060 o         1 MOL     -0.677313
    156 O23        -8.1560   -0.1070   -4.1850 o         1 MOL     -0.677313
    157 H67        -9.7240   -3.0470   -1.7190 hn        1 MOL      0.323926
    158 H68        -7.4080   -3.2580   -0.0440 h1        1 MOL      0.014714
    159 H69        -7.6690   -3.7000   -2.9790 hc        1 MOL      0.006370
    160 H70        -6.2460   -3.2120   -1.9950 hc        1 MOL      0.006370
    161 H71        -7.2640   -0.9790   -1.6480 hc        1 MOL     -0.033971
    162 H72        -8.7990   -1.4640   -2.4090 hc        1 MOL     -0.033971
    163 N14        -7.0070   -5.8440    0.2240 n         1 MOL     -0.362094
    164 C55        -6.6410   -5.2940    1.5320 c3        1 MOL     -0.188020
    165 H73        -5.6230   -4.9080    1.4910 h1        1 MOL      0.089510
    166 H74        -7.3250   -4.4860    1.7910 h1        1 MOL      0.089510
    167 H75        -6.7020   -6.0780    2.2870 h1        1 MOL      0.089510
    168 H76        -7.0860   -6.8510    0.1810 hn        1 MOL      0.266810
    169 Ca1         8.1430   -0.4980    1.7670 Ca        1 MOL      1.754925
    170 O24         5.4060   -1.7420    1.7470 oh        1 MOL     -0.774487
    171 H77         4.7730   -2.0880    1.1230 ho        1 MOL      0.379641
    172 H78         5.0010   -1.8800    2.6070 ho        1 MOL      0.379641
    173 O25         9.6460    0.3550    3.6780 oh        1 MOL     -0.774487
    174 H79         9.3280    1.0810    4.2280 ho        1 MOL      0.379641
    175 H80        10.2290   -0.1430    4.2640 ho        1 MOL      0.379641
    176 O26         7.3650   -1.8190    4.0120 oh        1 MOL     -0.774487
    177 H81         6.6460   -2.3900    4.2910 ho        1 MOL      0.379641
    178 H82         7.6300   -1.3630    4.8090 ho        1 MOL      0.379641
@<TRIPOS>BOND
     1    1    2 1   
     2    1    4 1   
     3    1    5 1   
     4    1    6 1   
     5    2    3 2   
     6    2    7 1   
     7    7    8 1   
     8    7   15 1   
     9    8    9 1   
    10    8   11 1   
    11    8   16 1   
    12    9   10 2   
    13    9   19 1   
    14   11   12 1   
    15   11   17 1   
    16   11   18 1   
    17   12   13 1   
    18   12   14 1   
    19   19   20 1   
    20   19   24 1   
    21   20   21 1   
    22   20   23 1   
    23   20   25 1   
    24   21   22 2   
    25   21   29 1   
    26   23   26 1   
    27   23   27 1   
    28   23   28 1   
    29   29   30 1   
    30   29   37 1   
    31   30   31 1   
    32   30   33 1   
    33   30   38 1   
    34   31   32 2   
    35   31   41 1   
    36   33   34 1   
    37   33   39 1   
    38   33   40 1   
    39   34   35 1   
    40   34   36 1   
    41   41   42 1   
    42   41   45 1   
    43   42   43 1   
    44   42   46 1   
    45   42   47 1   
    46   43   44 2   
    47   43   48 1   
    48   48   49 1   
    49   48   56 1   
    50   49   50 1   
    51   49   52 1   
    52   49   57 1   
    53   50   51 2   
    54   50   62 1   
    55   52   53 1   
    56   52   58 1   
    57   52   59 1   
    58   53   54 1   
    59   53   55 2   
    60   54   60 1   
    61   54   61 1   
    62   62   63 1   
    63   62   66 1   
    64   63   64 1   
    65   63   67 1   
    66   63   68 1   
    67   64   65 2   
    68   64   69 1   
    69   69   70 1   
    70   69   76 1   
    71   70   71 1   
    72   70   73 1   
    73   70   77 1   
    74   71   72 2   
    75   71   83 1   
    76   73   74 1   
    77   73   75 1   
    78   73   78 1   
    79   74   80 1   
    80   74   81 1   
    81   74   82 1   
    82   75   79 1   
    83   83   84 1   
    84   83   91 1   
    85   84   85 1   
    86   84   87 1   
    87   84   92 1   
    88   85   86 2   
    89   85  102 1   
    90   87   88 1   
    91   87   89 1   
    92   87   93 1   
    93   88   90 1   
    94   88   94 1   
    95   88   95 1   
    96   89   96 1   
    97   89   97 1   
    98   89   98 1   
    99   90   99 1   
   100   90  100 1   
   101   90  101 1   
   102  102  103 1   
   103  102  110 1   
   104  103  104 1   
   105  103  106 1   
   106  103  111 1   
   107  104  105 2   
   108  104  114 1   
   109  106  107 1   
   110  106  112 1   
   111  106  113 1   
   112  107  108 1   
   113  107  109 1   
   114  114  115 1   
   115  114  125 1   
   116  115  116 1   
   117  115  118 1   
   118  115  126 1   
   119  116  117 2   
   120  116  134 1   
   121  118  119 1   
   122  118  127 1   
   123  118  128 1   
   124  119  120 ar  
   125  119  121 ar  
   126  120  122 ar  
   127  120  129 1   
   128  121  123 ar  
   129  121  130 1   
   130  122  124 ar  
   131  122  131 1   
   132  123  124 ar  
   133  123  132 1   
   134  124  133 1   
   135  134  135 1   
   136  134  140 1   
   137  135  136 1   
   138  135  138 1   
   139  135  141 1   
   140  136  137 2   
   141  136  148 1   
   142  138  139 1   
   143  138  142 1   
   144  138  143 1   
   145  139  140 1   
   146  139  144 1   
   147  139  145 1   
   148  140  146 1   
   149  140  147 1   
   150  148  149 1   
   151  148  157 1   
   152  149  150 1   
   153  149  152 1   
   154  149  158 1   
   155  150  151 2   
   156  150  163 1   
   157  152  153 1   
   158  152  159 1   
   159  152  160 1   
   160  153  154 1   
   161  153  161 1   
   162  153  162 1   
   163  154  155 1   
   164  154  156 1   
   165  163  164 1   
   166  163  168 1   
   167  164  165 1   
   168  164  166 1   
   169  164  167 1   
   170  170  171 1   
   171  170  172 1   
   172  173  174 1   
   173  173  175 1   
   174  176  177 1   
   175  176  178 1   
@<TRIPOS>SUBSTRUCTURE
     1 MOL         1 TEMP              0 ****  ****    0 ROOT
