@<TRIPOS>MOLECULE
MOL
  179   176     1     0     0
SMALL
resp


@<TRIPOS>ATOM
      1 C1          2.1000   -3.9650    6.5140 c3        1 MOL     -0.480998
      2 C2          2.1720   -4.0290    4.9870 c         1 MOL      0.794388
      3 O1          1.4560   -4.7240    4.3390 o         1 MOL     -0.581460
      4 H1          1.5450   -4.8260    6.8870 hc        1 MOL      0.126341
      5 H2          3.1080   -3.9780    6.9270 hc        1 MOL      0.126341
      6 H3          1.5940   -3.0490    6.8160 hc        1 MOL      0.126341
      7 N1          3.0500   -3.1920    4.3690 n         1 MOL     -0.588054
      8 C3          3.1050   -2.8150    2.9820 c3        1 MOL     -0.038776
      9 C4          3.6970   -3.9330    2.1190 c         1 MOL      0.705484
     10 O2          4.7520   -4.3760    2.4040 o         1 MOL     -0.565509
     11 C5          3.9530   -1.5590    2.9370 c3        1 MOL     -0.012353
     12 C6          3.8520   -0.8200    1.6830 c         1 MOL      0.450559
     13 O3          3.9000    0.4060    1.6120 o         1 MOL     -0.618150
     14 O4          3.6490   -1.4760    0.6550 o         1 MOL     -0.618150
     15 H4          3.6480   -2.6820    5.0040 hn        1 MOL      0.280390
     16 H5          2.0970   -2.5330    2.6710 h1        1 MOL     -0.017164
     17 H6          4.9850   -1.8250    3.1610 hc        1 MOL      0.043871
     18 H7          3.6550   -0.8150    3.6680 hc        1 MOL      0.043871
     19 N2          2.9540   -4.4520    1.1200 n         1 MOL     -0.315070
     20 C7          3.4300   -5.3930    0.1420 c3        1 MOL      0.002897
     21 C8          4.5650   -4.9570   -0.7780 c         1 MOL      0.531877
     22 O5          5.0700   -5.8130   -1.4920 o         1 MOL     -0.585424
     23 C9          2.2790   -5.8790   -0.7940 c3        1 MOL     -0.236257
     24 C10         1.5610   -4.7330   -1.4710 c3        1 MOL      0.466861
     25 C11         0.7960   -5.1180   -2.7130 c3        1 MOL     -0.182601
     26 C12         1.8150   -5.5480   -3.7150 c3        1 MOL      0.202464
     27 N3          1.2240   -5.9830   -4.9640 n4        1 MOL     -0.300059
     28 H8          2.1010   -3.9400    0.9390 hn        1 MOL      0.081792
     29 H9          3.8390   -6.2900    0.6050 h1        1 MOL      0.109182
     30 H10         1.5180   -6.4070   -0.2220 hc        1 MOL      0.062775
     31 H11         2.7090   -6.5620   -1.5180 hc        1 MOL      0.062775
     32 H12         2.3220   -4.0000   -1.7480 hc        1 MOL     -0.100579
     33 H13         0.8080   -4.3090   -0.7980 hc        1 MOL     -0.100579
     34 H14         0.2100   -4.2710   -3.0810 hc        1 MOL      0.013524
     35 H15         0.0900   -5.9200   -2.4960 hc        1 MOL      0.013524
     36 H16         2.4610   -6.3140   -3.2940 hx        1 MOL      0.029282
     37 H17         2.3710   -4.6240   -3.9290 hx        1 MOL      0.029282
     38 H18         0.4370   -5.3740   -5.1280 hn        1 MOL      0.263353
     39 H19         1.8780   -5.8700   -5.7250 hn        1 MOL      0.263353
     40 H20         0.8310   -6.9000   -4.8370 hn        1 MOL      0.263353
     41 N4          4.9560   -3.7040   -0.7840 n         1 MOL     -0.359333
     42 C13         5.9700   -3.1730   -1.7170 c3        1 MOL      0.041673
     43 C14         6.8950   -2.1320   -1.0520 c         1 MOL      0.422825
     44 O6          7.9930   -2.0230   -1.6320 o         1 MOL     -0.515206
     45 C15         5.3740   -2.5220   -2.9560 c3        1 MOL     -0.182683
     46 C16         4.3370   -1.4220   -2.6230 c         1 MOL      0.799867
     47 O7          3.0920   -1.6250   -2.6560 o         1 MOL     -0.800698
     48 O8          4.6210   -0.2620   -2.1570 o         1 MOL     -0.800698
     49 H21         4.3680   -3.1500   -0.1680 hn        1 MOL      0.192773
     50 H22         6.6230   -3.9620   -2.0870 h1        1 MOL      0.134861
     51 H23         4.7820   -3.1770   -3.5810 hc        1 MOL      0.051239
     52 H24         6.2170   -2.1520   -3.5440 hc        1 MOL      0.051239
     53 N5          6.6080   -1.4810    0.1300 n         1 MOL     -0.163370
     54 C17         7.5830   -0.6480    0.9070 c3        1 MOL     -0.271713
     55 C18         7.6760    0.8480    0.4020 c         1 MOL      0.487329
     56 O9          8.5140    1.5820    0.9480 o         1 MOL     -0.522004
     57 H25         5.7160   -1.6730    0.5670 hn        1 MOL      0.139748
     58 H26         8.5550   -1.1440    0.9400 h1        1 MOL      0.159372
     59 H27         7.2000   -0.6650    1.9320 h1        1 MOL      0.159372
     60 N6          6.9320    1.2400   -0.6670 n         1 MOL     -0.053752
     61 C19         6.8450    2.5550   -1.2030 c3        1 MOL     -0.180117
     62 C20         5.4080    3.1230   -1.0780 c         1 MOL      0.716846
     63 O10         4.4430    2.3400   -0.8450 o         1 MOL     -0.617211
     64 C21         7.2080    2.4530   -2.7040 c3        1 MOL     -0.141815
     65 C22         8.5420    1.8620   -2.9910 c         1 MOL      0.629932
     66 N7          8.6680    0.7160   -3.6070 n         1 MOL     -0.834787
     67 O11         9.6000    2.4560   -2.6210 o         1 MOL     -0.536895
     68 H28         6.2490    0.5410   -0.9330 hn        1 MOL      0.141368
     69 H29         7.6430    3.1670   -0.7790 h1        1 MOL      0.102690
     70 H30         7.2580    3.4490   -3.1410 hc        1 MOL      0.039526
     71 H31         6.3650    1.9180   -3.1390 hc        1 MOL      0.039526
     72 H32         7.8870    0.3020   -4.0820 hn        1 MOL      0.399191
     73 H33         9.5710    0.2620   -3.5200 hn        1 MOL      0.399191
     74 N8          5.1590    4.4110   -1.3200 n         1 MOL     -0.586613
     75 C23         3.8160    4.9760   -1.4180 c3        1 MOL      0.078648
     76 C24         2.9640    5.2290   -0.1610 c         1 MOL      0.641549
     77 O12         3.4680    5.3210    0.9570 o         1 MOL     -0.496549
     78 H34         5.9330    4.9620   -1.6570 hn        1 MOL      0.377490
     79 H35         3.1510    4.3000   -1.9400 h1        1 MOL      0.023565
     80 H36         3.9220    5.9270   -1.9570 h1        1 MOL      0.023565
     81 N9          1.6440    5.2160   -0.3430 n         1 MOL     -0.714576
     82 C25         0.6700    4.8540    0.7010 c3        1 MOL      0.430927
     83 C26         0.7480    3.3910    1.1100 c         1 MOL      0.497208
     84 O13         1.5210    2.5530    0.5800 o         1 MOL     -0.580978
     85 C27        -0.7170    5.2960    0.1920 c3        1 MOL     -0.139981
     86 C28        -1.0850    6.7620   -0.0520 ca        1 MOL      0.150172
     87 C29        -1.7730    7.1690   -1.2190 ca        1 MOL     -0.209612
     88 C30        -0.7770    7.6710    0.9240 ca        1 MOL     -0.209612
     89 C31        -1.9960    8.5390   -1.4860 ca        1 MOL     -0.231494
     90 C32        -1.0360    9.0270    0.7050 ca        1 MOL     -0.231494
     91 C33        -1.6860    9.4540   -0.4140 ca        1 MOL      0.297231
     92 O14        -1.8870   10.8270   -0.4420 oh        1 MOL     -0.430846
     93 H37         1.2750    5.1330   -1.2880 hn        1 MOL      0.300095
     94 H38         0.9080    5.4230    1.6090 h1        1 MOL      0.022528
     95 H39        -1.4340    4.9430    0.9340 hc        1 MOL      0.000812
     96 H40        -0.8430    4.7230   -0.7210 hc        1 MOL      0.000812
     97 H41        -2.0900    6.3260   -1.8170 ha        1 MOL      0.144040
     98 H42        -0.2900    7.3310    1.8320 ha        1 MOL      0.144040
     99 H43        -2.4130    8.7480   -2.4550 ha        1 MOL      0.167510
    100 H44        -0.8520    9.6980    1.5330 ha        1 MOL      0.167510
    101 H45        -2.3670   10.8750   -1.2760 ho        1 MOL      0.335782
    102 N10        -0.0780    3.0510    2.1170 n         1 MOL     -0.683961
    103 C34        -0.1880    1.6620    2.7170 c3        1 MOL      0.325728
    104 C35        -0.3170    0.4390    1.7220 c         1 MOL     -0.018097
    105 O15         0.6140    0.0480    1.0930 o         1 MOL     -0.181460
    106 C36         0.9400    1.3390    3.7820 c3        1 MOL      0.492708
    107 C37         0.5180    0.0910    4.6670 c3        1 MOL     -0.328399
    108 C38         1.2470    2.6040    4.5980 c3        1 MOL     -0.463539
    109 C39        -0.6280    0.2670    5.6830 c3        1 MOL     -0.008481
    110 H46        -0.6410    3.8170    2.4570 hn        1 MOL      0.322196
    111 H47        -1.0250    1.6850    3.4180 h1        1 MOL      0.022169
    112 H48         1.8320    1.0660    3.2250 hc        1 MOL     -0.077250
    113 H49         1.3840   -0.0740    5.3130 hc        1 MOL      0.109205
    114 H50         0.2190   -0.7680    4.0700 hc        1 MOL      0.109205
    115 H51         0.3460    3.0630    5.0370 hc        1 MOL      0.108941
    116 H52         1.9740    2.3030    5.3440 hc        1 MOL      0.108941
    117 H53         1.7950    3.3350    4.0010 hc        1 MOL      0.108941
    118 H54        -0.6500    1.2720    6.1080 hc        1 MOL      0.008959
    119 H55        -1.6200    0.2460    5.2280 hc        1 MOL      0.008959
    120 H56        -0.5570   -0.4930    6.4480 hc        1 MOL      0.008959
    121 N11        -1.5210   -0.0920    1.4390 n         1 MOL     -0.217469
    122 C40        -1.7250   -1.4120    0.7060 c3        1 MOL     -0.042313
    123 C41        -3.2440   -1.7850    0.6060 c         1 MOL      0.600709
    124 O16        -3.7670   -2.7360    1.2090 o         1 MOL     -0.545798
    125 C42        -0.9900   -2.5680    1.3920 c3        1 MOL     -0.171466
    126 O17         0.4020   -2.5960    1.1400 oh        1 MOL     -0.097397
    127 H57        -2.2840    0.3970    1.8960 hn        1 MOL      0.225946
    128 H58        -1.4420   -1.3040   -0.3400 h1        1 MOL      0.107376
    129 H59        -1.3450   -3.5010    0.9630 h1        1 MOL      0.123276
    130 H60        -1.2010   -2.5400    2.4620 h1        1 MOL      0.123276
    131 H61         0.6870   -1.9120    0.5340 ho        1 MOL      0.118903
    132 N12        -3.9360   -1.0510   -0.1440 n         1 MOL     -0.526601
    133 C43        -5.3770   -1.1220   -0.2850 c3        1 MOL      0.093307
    134 C44        -5.7030   -0.4280   -1.6500 c         1 MOL      0.630126
    135 O18        -4.8980    0.3750   -2.1810 o         1 MOL     -0.576067
    136 C45        -5.9840   -0.4550    0.9750 c3        1 MOL     -0.144461
    137 H62        -3.4030   -0.3580   -0.6490 hn        1 MOL      0.242288
    138 H63        -5.6890   -2.1640   -0.3640 h1        1 MOL      0.102357
    139 H64        -5.9600   -1.1920    1.7710 hc        1 MOL      0.069602
    140 H65        -5.3540    0.3540    1.3310 hc        1 MOL      0.069602
    141 H66        -6.9980   -0.0510    0.8600 hc        1 MOL      0.069602
    142 N13        -6.8830   -0.6010   -2.2730 n         1 MOL     -0.670668
    143 C46        -8.0030   -1.5290   -2.0090 c3        1 MOL      0.361656
    144 C47        -9.3220   -0.9310   -2.4470 c         1 MOL      0.348610
    145 O19        -9.3830   -0.3850   -3.5260 o         1 MOL     -0.514025
    146 C48        -7.6750   -2.8350   -2.7730 c3        1 MOL     -0.363315
    147 H67        -7.0550   -0.0890   -3.1270 hn        1 MOL      0.355081
    148 H68        -8.0370   -1.6760   -0.9250 h1        1 MOL     -0.045280
    149 H69        -7.5890   -2.6060   -3.8310 hc        1 MOL      0.107771
    150 H70        -6.7570   -3.3450   -2.4790 hc        1 MOL      0.107771
    151 H71        -8.5410   -3.4900   -2.6370 hc        1 MOL      0.107771
    152 N14       -10.4340   -0.9390   -1.6540 n         1 MOL     -0.200216
    153 C49       -10.5280   -1.4250   -0.2470 c3        1 MOL     -0.324071
    154 C50        -9.9570   -0.5400    0.8310 c         1 MOL      0.655644
    155 O20        -9.6920   -1.0010    1.9260 o         1 MOL     -0.548649
    156 C51       -12.0410   -1.7590    0.0400 c3        1 MOL      0.131357
    157 C52       -13.0080   -0.5390   -0.0710 c3        1 MOL     -0.340261
    158 C53       -14.3630   -1.1060   -0.5850 c         1 MOL      0.723735
    159 O21       -14.6540   -0.9970   -1.7640 o         1 MOL     -0.661388
    160 O22       -15.1660   -1.5780    0.2720 o         1 MOL     -0.661388
    161 H72       -11.1600   -0.4210   -2.1260 hn        1 MOL      0.274865
    162 H73        -9.9500   -2.3390   -0.1200 h1        1 MOL      0.124358
    163 H74       -12.3320   -2.3800    0.8750 hc        1 MOL      0.022822
    164 H75       -12.2740   -2.3530   -0.8490 hc        1 MOL      0.022822
    165 H76       -12.5830    0.1990   -0.7400 hc        1 MOL      0.071610
    166 H77       -13.1900   -0.1780    0.9460 hc        1 MOL      0.071610
    167 N15        -9.7670    0.7600    0.5040 n         1 MOL     -0.335035
    168 C54        -9.3340    1.7980    1.4360 c3        1 MOL     -0.242547
    169 H78        -8.7040    2.5160    0.9110 h1        1 MOL      0.107885
    170 H79       -10.2070    2.3100    1.8420 h1        1 MOL      0.107885
    171 H80        -8.7680    1.3440    2.2480 h1        1 MOL      0.107885
    172 H81       -10.0660    1.1070   -0.4030 hn        1 MOL      0.254484
    173 Ca1         2.4710    0.5490   -0.8090 Ca        1 MOL      1.773695
    174 O23         0.6580   -1.2920   -1.5050 oh        1 MOL     -0.871489
    175 H82         1.2920   -1.7560   -2.0620 ho        1 MOL      0.432317
    176 H83        -0.1690   -1.3500   -1.9780 ho        1 MOL      0.432317
    177 O24         0.1630    1.4360   -2.0680 oh        1 MOL     -0.871489
    178 H84        -0.7300    1.4760   -1.7340 ho        1 MOL      0.432317
    179 H85         0.3330    2.3190   -2.4020 ho        1 MOL      0.432317
@<TRIPOS>BOND
     1    1    2 1   
     2    1    4 1   
     3    1    5 1   
     4    1    6 1   
     5    2    3 2   
     6    2    7 1   
     7    7    8 1   
     8    7   15 1   
     9    8    9 1   
    10    8   11 1   
    11    8   16 1   
    12    9   10 2   
    13    9   19 1   
    14   11   12 1   
    15   11   17 1   
    16   11   18 1   
    17   12   13 1   
    18   12   14 1   
    19   19   20 1   
    20   19   28 1   
    21   20   21 1   
    22   20   23 1   
    23   20   29 1   
    24   21   22 2   
    25   21   41 1   
    26   23   24 1   
    27   23   30 1   
    28   23   31 1   
    29   24   25 1   
    30   24   32 1   
    31   24   33 1   
    32   25   26 1   
    33   25   34 1   
    34   25   35 1   
    35   26   27 1   
    36   26   36 1   
    37   26   37 1   
    38   27   38 1   
    39   27   39 1   
    40   27   40 1   
    41   41   42 1   
    42   41   49 1   
    43   42   43 1   
    44   42   45 1   
    45   42   50 1   
    46   43   44 2   
    47   43   53 1   
    48   45   46 1   
    49   45   51 1   
    50   45   52 1   
    51   46   47 1   
    52   46   48 1   
    53   53   54 1   
    54   53   57 1   
    55   54   55 1   
    56   54   58 1   
    57   54   59 1   
    58   55   56 2   
    59   55   60 1   
    60   60   61 1   
    61   60   68 1   
    62   61   62 1   
    63   61   64 1   
    64   61   69 1   
    65   62   63 2   
    66   62   74 1   
    67   64   65 1   
    68   64   70 1   
    69   64   71 1   
    70   65   66 1   
    71   65   67 2   
    72   66   72 1   
    73   66   73 1   
    74   74   75 1   
    75   74   78 1   
    76   75   76 1   
    77   75   79 1   
    78   75   80 1   
    79   76   77 2   
    80   76   81 1   
    81   81   82 1   
    82   81   93 1   
    83   82   83 1   
    84   82   85 1   
    85   82   94 1   
    86   83   84 2   
    87   83  102 1   
    88   85   86 1   
    89   85   95 1   
    90   85   96 1   
    91   86   87 ar  
    92   86   88 ar  
    93   87   89 ar  
    94   87   97 1   
    95   88   90 ar  
    96   88   98 1   
    97   89   91 ar  
    98   89   99 1   
    99   90   91 ar  
   100   90  100 1   
   101   91   92 1   
   102   92  101 1   
   103  102  103 1   
   104  102  110 1   
   105  103  104 1   
   106  103  106 1   
   107  103  111 1   
   108  104  105 2   
   109  104  121 1   
   110  106  107 1   
   111  106  108 1   
   112  106  112 1   
   113  107  109 1   
   114  107  113 1   
   115  107  114 1   
   116  108  115 1   
   117  108  116 1   
   118  108  117 1   
   119  109  118 1   
   120  109  119 1   
   121  109  120 1   
   122  121  122 1   
   123  121  127 1   
   124  122  123 1   
   125  122  125 1   
   126  122  128 1   
   127  123  124 2   
   128  123  132 1   
   129  125  126 1   
   130  125  129 1   
   131  125  130 1   
   132  126  131 1   
   133  132  133 1   
   134  132  137 1   
   135  133  134 1   
   136  133  136 1   
   137  133  138 1   
   138  134  135 2   
   139  134  142 1   
   140  136  139 1   
   141  136  140 1   
   142  136  141 1   
   143  142  143 1   
   144  142  147 1   
   145  143  144 1   
   146  143  146 1   
   147  143  148 1   
   148  144  145 2   
   149  144  152 1   
   150  146  149 1   
   151  146  150 1   
   152  146  151 1   
   153  152  153 1   
   154  152  161 1   
   155  153  154 1   
   156  153  156 1   
   157  153  162 1   
   158  154  155 2   
   159  154  167 1   
   160  156  157 1   
   161  156  163 1   
   162  156  164 1   
   163  157  158 1   
   164  157  165 1   
   165  157  166 1   
   166  158  159 1   
   167  158  160 1   
   168  167  168 1   
   169  167  172 1   
   170  168  169 1   
   171  168  170 1   
   172  168  171 1   
   173  174  175 1   
   174  174  176 1   
   175  177  178 1   
   176  177  179 1   
@<TRIPOS>SUBSTRUCTURE
     1 MOL         1 TEMP              0 ****  ****    0 ROOT
