@<TRIPOS>MOLECULE
MOL
  198   191     1     0     0
SMALL
resp


@<TRIPOS>ATOM
      1 C1          4.0700   -3.3490   -2.6290 c3        1 MOL     -0.043050
      2 C2          3.1010   -3.5470   -1.5440 c         1 MOL      0.491172
      3 O1          2.5070   -2.5970   -0.9540 o         1 MOL     -0.480476
      4 H1          3.9390   -2.3540   -3.0550 hc        1 MOL      0.004028
      5 H2          5.0820   -3.4440   -2.2350 hc        1 MOL      0.004028
      6 H3          3.9080   -4.0990   -3.4030 hc        1 MOL      0.004028
      7 N1          2.8530   -4.7930   -1.1650 n         1 MOL     -0.507153
      8 C3          1.8620   -5.2500   -0.1480 c3        1 MOL     -0.148812
      9 C4          0.3840   -5.0590   -0.5160 c         1 MOL      0.788836
     10 O2         -0.4700   -5.0210    0.3240 o         1 MOL     -0.567213
     11 C5          2.2870   -4.8900    1.2570 c3        1 MOL     -0.245205
     12 C6          3.7560   -4.8770    1.5740 c         1 MOL      0.726924
     13 O3          4.4140   -3.8370    1.3180 o         1 MOL     -0.702615
     14 O4          4.1780   -5.7620    2.3880 o         1 MOL     -0.702615
     15 H4          3.3850   -5.4860   -1.6780 hn        1 MOL      0.298483
     16 H5          1.8680   -6.3460   -0.1920 h1        1 MOL      0.117286
     17 H6          1.8290   -5.6670    1.8710 hc        1 MOL      0.116549
     18 H7          1.8780   -3.9310    1.5850 hc        1 MOL      0.116549
     19 N2          0.1150   -4.8070   -1.7750 n         1 MOL     -0.536169
     20 C7         -1.1470   -4.2520   -2.2410 c3        1 MOL     -0.261358
     21 C8         -2.2750   -5.3790   -2.1290 c         1 MOL      0.455893
     22 O5         -1.9520   -6.6050   -2.2280 o         1 MOL     -0.549853
     23 C9         -1.0920   -3.7380   -3.7030 c3        1 MOL      0.228860
     24 C10        -0.2000   -4.5690   -4.6840 c3        1 MOL     -0.047779
     25 C11        -0.3840   -2.3250   -3.5900 c3        1 MOL     -0.214849
     26 C12        -0.5920   -4.3300   -6.1490 c3        1 MOL     -0.269118
     27 H8          0.8090   -5.1370   -2.4480 hn        1 MOL      0.270898
     28 H9         -1.3740   -3.4780   -1.5150 h1        1 MOL      0.146402
     29 H10        -2.0570   -3.5610   -4.1700 hc        1 MOL      0.039213
     30 H11        -0.4630   -5.6120   -4.5140 hc        1 MOL      0.057058
     31 H12         0.8530   -4.4260   -4.4370 hc        1 MOL      0.057058
     32 H13         0.5020   -2.2940   -2.9630 hc        1 MOL      0.062429
     33 H14        -0.1040   -1.9770   -4.5840 hc        1 MOL      0.062429
     34 H15        -1.1080   -1.6380   -3.1470 hc        1 MOL      0.062429
     35 H16        -1.5830   -4.7530   -6.3550 hc        1 MOL      0.064505
     36 H17        -0.6870   -3.2730   -6.3450 hc        1 MOL      0.064505
     37 H18         0.1530   -4.8340   -6.7690 hc        1 MOL      0.064505
     38 N3         -3.5770   -5.1210   -1.9650 n         1 MOL     -0.359415
     39 C13        -4.2530   -3.7800   -1.9260 c3        1 MOL      0.077269
     40 C14        -4.1440   -3.1960   -0.4400 c         1 MOL      0.354696
     41 O6         -4.0310   -1.9940   -0.1920 o         1 MOL     -0.549933
     42 C15        -5.7390   -3.8430   -2.4300 c3        1 MOL     -0.294504
     43 C16        -6.5090   -5.1730   -2.4160 c         1 MOL      0.704088
     44 O7         -5.9950   -6.2090   -1.9360 o         1 MOL     -0.693885
     45 O8         -7.6990   -5.1480   -2.8580 o         1 MOL     -0.693885
     46 H19        -4.2030   -5.9160   -1.9110 hn        1 MOL      0.272496
     47 H20        -3.7180   -3.0270   -2.5020 h1        1 MOL      0.056119
     48 H21        -5.7110   -3.4730   -3.4560 hc        1 MOL      0.076421
     49 H22        -6.4000   -3.0930   -2.0070 hc        1 MOL      0.076421
     50 N4         -4.2870   -4.0960    0.4810 n         1 MOL     -0.097926
     51 C17        -4.4730   -3.8000    1.9350 c3        1 MOL     -0.311737
     52 C18        -5.8500   -3.2150    2.1770 c         1 MOL      0.631680
     53 O9         -6.7870   -3.5580    1.4230 o         1 MOL     -0.580284
     54 H23        -4.2320   -5.0270    0.0900 hn        1 MOL      0.246103
     55 H24        -3.7410   -3.0430    2.2120 h1        1 MOL      0.128137
     56 H25        -4.3880   -4.7520    2.4540 h1        1 MOL      0.128137
     57 N5         -6.0520   -2.1310    2.9790 n         1 MOL     -0.558512
     58 C19        -7.3380   -1.4420    3.3590 c3        1 MOL      0.180729
     59 C20        -8.0920   -0.7140    2.2220 c         1 MOL      0.281344
     60 O10        -9.2430   -0.2990    2.4680 o         1 MOL     -0.535858
     61 C21        -7.2460   -0.5440    4.6460 c3        1 MOL     -0.228377
     62 C22        -5.9040   -0.3180    5.2830 c         1 MOL      0.764188
     63 O11        -4.8710   -0.3090    4.5700 o         1 MOL     -0.727497
     64 O12        -5.8610   -0.0510    6.4840 o         1 MOL     -0.727497
     65 H26        -5.1950   -1.7480    3.3680 hn        1 MOL      0.274742
     66 H27        -7.9920   -2.2630    3.6540 h1        1 MOL      0.089500
     67 H28        -7.9370   -1.0880    5.2940 hc        1 MOL      0.037564
     68 H29        -7.6820    0.4040    4.3490 hc        1 MOL      0.037564
     69 N6         -7.5280   -0.4880    1.0250 n         1 MOL      0.005329
     70 C23        -8.2410    0.0690   -0.1370 c3        1 MOL     -0.295738
     71 C24        -8.0280    1.5970   -0.3230 c         1 MOL      0.532318
     72 O13        -8.6980    2.2280   -1.1400 o         1 MOL     -0.588037
     73 H30        -6.5510   -0.7450    0.9190 hn        1 MOL      0.198642
     74 H31        -9.3150   -0.0910   -0.0080 h1        1 MOL      0.141064
     75 H32        -7.9910   -0.3860   -1.0920 h1        1 MOL      0.141064
     76 N7         -7.2720    2.2180    0.5010 n         1 MOL     -0.112910
     77 C25        -6.7730    3.6250    0.4380 c3        1 MOL     -0.214964
     78 C26        -5.9060    3.9720   -0.8100 c         1 MOL      0.326173
     79 O14        -5.5920    5.1230   -1.0610 o         1 MOL     -0.497269
     80 C27        -7.9890    4.5410    0.6620 c3        1 MOL      0.200707
     81 C28        -8.8170    4.1270    1.8740 c3        1 MOL     -0.134276
     82 C29        -9.9720    5.0770    2.1330 c         1 MOL      0.584964
     83 N8        -11.1060    5.0200    1.3630 n         1 MOL     -0.830146
     84 O15        -9.7690    6.0350    2.8830 o         1 MOL     -0.542258
     85 H33        -6.7420    1.5630    1.0720 hn        1 MOL      0.133096
     86 H34        -6.1140    3.8280    1.2860 h1        1 MOL      0.169300
     87 H35        -8.6460    4.5230   -0.1990 hc        1 MOL     -0.004348
     88 H36        -7.7530    5.5890    0.8590 hc        1 MOL     -0.004348
     89 H37        -8.1060    4.2290    2.6930 hc        1 MOL      0.040048
     90 H38        -9.1270    3.0840    1.7850 hc        1 MOL      0.040048
     91 H39       -11.1570    4.3720    0.5980 hn        1 MOL      0.372196
     92 H40       -11.8870    5.6300    1.5860 hn        1 MOL      0.372196
     93 N9         -5.5000    2.9890   -1.5690 n         1 MOL     -0.034091
     94 C30        -4.5850    2.9870   -2.7730 c3        1 MOL     -0.135982
     95 C31        -3.0940    2.8490   -2.4070 c         1 MOL      0.645858
     96 O16        -2.3080    3.4120   -3.1630 o         1 MOL     -0.561491
     97 C32        -4.9610    1.8890   -3.8290 c3        1 MOL      0.144353
     98 C33        -4.9860    0.4570   -3.2190 c3        1 MOL     -0.230950
     99 C34        -6.2070    2.1010   -4.6210 c3        1 MOL     -0.230950
    100 H41        -5.9250    2.0820   -1.4040 hn        1 MOL      0.086129
    101 H42        -4.6910    3.9910   -3.1920 h1        1 MOL      0.111256
    102 H43        -4.2120    1.8710   -4.6280 hc        1 MOL      0.017845
    103 H44        -4.0830    0.2330   -2.6470 hc        1 MOL      0.056965
    104 H45        -5.8580    0.2610   -2.5960 hc        1 MOL      0.056965
    105 H46        -4.9590   -0.3020   -3.9940 hc        1 MOL      0.056965
    106 H47        -7.1520    2.0470   -4.0730 hc        1 MOL      0.056965
    107 H48        -6.1720    3.0850   -5.0810 hc        1 MOL      0.056965
    108 H49        -6.3710    1.2730   -5.3070 hc        1 MOL      0.056965
    109 N10        -2.7740    2.1270   -1.3150 n         1 MOL     -0.585488
    110 C35        -1.3300    1.8530   -1.0110 c3        1 MOL      0.229112
    111 C36        -0.7000    3.0190   -0.2750 c         1 MOL      0.477584
    112 O17        -1.3290    3.9210    0.2040 o         1 MOL     -0.518372
    113 C37        -1.1950    0.5470   -0.2300 c3        1 MOL     -0.053835
    114 C38         0.1230   -0.1780   -0.3650 c         1 MOL      0.561517
    115 N11         0.1470   -1.4290   -0.0180 n         1 MOL     -0.753842
    116 O18         1.0890    0.3350   -0.9630 o         1 MOL     -0.549360
    117 H50        -3.5240    1.7340   -0.7590 hn        1 MOL      0.267947
    118 H51        -0.7570    1.7830   -1.9440 h1        1 MOL      0.016377
    119 H52        -1.9620   -0.1100   -0.6420 hc        1 MOL      0.041204
    120 H53        -1.4230    0.6420    0.8270 hc        1 MOL      0.041204
    121 H54        -0.5850   -1.8870    0.5200 hn        1 MOL      0.361640
    122 H55         1.0060   -1.8960   -0.2720 hn        1 MOL      0.361640
    123 N12         0.6070    3.0720   -0.2570 n         1 MOL     -0.261276
    124 C39         1.3200    4.1460    0.2710 c3        1 MOL     -0.044757
    125 C40         2.7560    4.0540   -0.2060 c         1 MOL      0.594878
    126 O19         3.2490    2.9920   -0.6330 o         1 MOL     -0.540280
    127 C41         1.2770    4.0730    1.8250 c3        1 MOL     -0.120888
    128 C42         2.0040    2.9340    2.3980 ca        1 MOL     -0.085134
    129 C43         1.4740    1.6410    2.5550 ca        1 MOL      0.075297
    130 C44         3.3370    3.1170    2.8020 ca        1 MOL      0.075297
    131 C45         2.1500    0.5680    3.2030 ca        1 MOL     -0.542863
    132 C46         4.0150    2.0860    3.5250 ca        1 MOL     -0.542863
    133 C47         3.4640    0.7890    3.5920 ca        1 MOL      0.672192
    134 O20         4.2630   -0.2580    3.9370 oh        1 MOL     -0.672804
    135 H56         1.1810    2.4000   -0.7440 hn        1 MOL      0.186739
    136 H57         0.8170    5.0640   -0.0240 h1        1 MOL      0.099461
    137 H58         0.2370    3.9930    2.1490 hc        1 MOL      0.060581
    138 H59         1.7720    4.9710    2.2050 hc        1 MOL      0.060581
    139 H60         0.4890    1.4370    2.1640 ha        1 MOL      0.101120
    140 H61         3.6690    4.1410    2.8740 ha        1 MOL      0.101120
    141 H62         1.7540   -0.4330    3.1410 ha        1 MOL      0.195734
    142 H63         5.0650    2.1940    3.7620 ha        1 MOL      0.195734
    143 H64         3.7960   -1.0870    4.0150 ho        1 MOL      0.416283
    144 N13         3.5310    5.0570    0.0850 n         1 MOL     -0.800515
    145 C48         4.9730    5.1720   -0.2430 c3        1 MOL      0.780006
    146 C49         5.8780    4.6820    0.9180 c         1 MOL      0.439840
    147 O21         5.7970    5.2890    2.0110 o         1 MOL     -0.585581
    148 C50         5.2910    6.5730   -0.6530 c3        1 MOL     -0.041513
    149 C51         4.6050    6.9730   -1.9840 c3        1 MOL     -0.096175
    150 C52         5.1340    8.3290   -2.5690 c         1 MOL      0.709295
    151 O22         5.0750    8.5450   -3.7570 o         1 MOL     -0.729851
    152 O23         5.4330    9.1860   -1.6880 o         1 MOL     -0.729851
    153 H65         3.1020    5.8050    0.6140 hn        1 MOL      0.352184
    154 H66         5.1990    4.5680   -1.1250 h1        1 MOL     -0.187288
    155 H67         6.3770    6.6290   -0.7800 hc        1 MOL     -0.032309
    156 H68         5.0510    7.1770    0.2250 hc        1 MOL     -0.032309
    157 H69         3.5550    7.1920   -1.7870 hc        1 MOL     -0.007110
    158 H70         4.6730    6.1730   -2.7190 hc        1 MOL     -0.007110
    159 N14         6.7710    3.7610    0.7000 n         1 MOL     -0.515541
    160 C53         6.7790    2.7170   -0.2850 c3        1 MOL     -0.006807
    161 C54         7.5550    3.1160   -1.6300 c         1 MOL      0.527815
    162 O24         8.4240    3.9430   -1.6350 o         1 MOL     -0.504472
    163 C55         7.2340    1.3760    0.2850 c3        1 MOL      0.139435
    164 C56         8.7600    1.1450    0.2260 c3        1 MOL     -0.620091
    165 C57         9.1360   -0.1810    1.0060 c         1 MOL      0.900969
    166 O25         8.5470   -1.2260    0.7260 o         1 MOL     -0.763904
    167 O26        10.0070   -0.1660    1.8540 o         1 MOL     -0.763904
    168 H71         7.4180    3.6880    1.4730 hn        1 MOL      0.321331
    169 H72         5.7470    2.4320   -0.5060 h1        1 MOL      0.140115
    170 H73         6.7170    0.6520   -0.3510 hc        1 MOL      0.008604
    171 H74         6.9030    1.2160    1.3110 hc        1 MOL      0.008604
    172 H75         9.2260    1.9830    0.7500 hc        1 MOL      0.154126
    173 H76         9.1400    1.1130   -0.8030 hc        1 MOL      0.154126
    174 N15         7.2200    2.4480   -2.7430 n         1 MOL     -0.214882
    175 C58         7.8510    2.4220   -4.0760 c3        1 MOL     -0.614674
    176 H77         7.6940    3.3800   -4.5710 h1        1 MOL      0.207140
    177 H78         8.9210    2.2400   -3.9690 h1        1 MOL      0.207140
    178 H79         7.4060    1.6270   -4.6740 h1        1 MOL      0.207140
    179 H80         6.4040    1.8720   -2.6250 hn        1 MOL      0.223305
    180 Ca1         7.0210   -3.2550    1.2070 Ca        1 MOL      1.709440
    181 O27         5.0450   -1.4300    0.1950 oh        1 MOL     -0.825567
    182 H81         4.3370   -2.0750    0.2920 ho        1 MOL      0.401907
    183 H82         4.6760   -0.7560   -0.3890 ho        1 MOL      0.401907
    184 O28         6.4760   -4.6240    3.4150 oh        1 MOL     -0.825567
    185 H83         6.8340   -5.2460    4.0450 ho        1 MOL      0.401907
    186 H84         5.6790   -5.0520    3.0770 ho        1 MOL      0.401907
    187 O29         6.7500   -1.3510    2.9240 oh        1 MOL     -0.825567
    188 H85         6.1960   -0.6620    3.3030 ho        1 MOL      0.401907
    189 H86         7.4270   -1.5120    3.5770 ho        1 MOL      0.401907
    190 O30         6.9940   -5.9290    0.8270 oh        1 MOL     -0.825567
    191 H87         6.3510   -5.9070    0.1180 ho        1 MOL      0.401907
    192 H88         6.9860   -6.8370    1.1280 ho        1 MOL      0.401907
    193 O31         9.2160   -4.1300   -0.1070 oh        1 MOL     -0.825567
    194 H89         9.7920   -3.5000   -0.5390 ho        1 MOL      0.401907
    195 H90         9.3110   -4.9340   -0.6150 ho        1 MOL      0.401907
    196 O32         9.3190   -3.1610    2.6640 oh        1 MOL     -0.825567
    197 H91         9.6970   -2.3940    2.2410 ho        1 MOL      0.401907
    198 H92         9.6150   -3.0970    3.5700 ho        1 MOL      0.401907
@<TRIPOS>BOND
     1    1    2 1   
     2    1    4 1   
     3    1    5 1   
     4    1    6 1   
     5    2    3 2   
     6    2    7 1   
     7    7    8 1   
     8    7   15 1   
     9    8    9 1   
    10    8   11 1   
    11    8   16 1   
    12    9   10 2   
    13    9   19 1   
    14   11   12 1   
    15   11   17 1   
    16   11   18 1   
    17   12   13 1   
    18   12   14 1   
    19   19   20 1   
    20   19   27 1   
    21   20   21 1   
    22   20   23 1   
    23   20   28 1   
    24   21   22 2   
    25   21   38 1   
    26   23   24 1   
    27   23   25 1   
    28   23   29 1   
    29   24   26 1   
    30   24   30 1   
    31   24   31 1   
    32   25   32 1   
    33   25   33 1   
    34   25   34 1   
    35   26   35 1   
    36   26   36 1   
    37   26   37 1   
    38   38   39 1   
    39   38   46 1   
    40   39   40 1   
    41   39   42 1   
    42   39   47 1   
    43   40   41 2   
    44   40   50 1   
    45   42   43 1   
    46   42   48 1   
    47   42   49 1   
    48   43   44 1   
    49   43   45 1   
    50   50   51 1   
    51   50   54 1   
    52   51   52 1   
    53   51   55 1   
    54   51   56 1   
    55   52   53 2   
    56   52   57 1   
    57   57   58 1   
    58   57   65 1   
    59   58   59 1   
    60   58   61 1   
    61   58   66 1   
    62   59   60 2   
    63   59   69 1   
    64   61   62 1   
    65   61   67 1   
    66   61   68 1   
    67   62   63 1   
    68   62   64 1   
    69   69   70 1   
    70   69   73 1   
    71   70   71 1   
    72   70   74 1   
    73   70   75 1   
    74   71   72 2   
    75   71   76 1   
    76   76   77 1   
    77   76   85 1   
    78   77   78 1   
    79   77   80 1   
    80   77   86 1   
    81   78   79 2   
    82   78   93 1   
    83   80   81 1   
    84   80   87 1   
    85   80   88 1   
    86   81   82 1   
    87   81   89 1   
    88   81   90 1   
    89   82   83 1   
    90   82   84 2   
    91   83   91 1   
    92   83   92 1   
    93   93   94 1   
    94   93  100 1   
    95   94   95 1   
    96   94   97 1   
    97   94  101 1   
    98   95   96 2   
    99   95  109 1   
   100   97   98 1   
   101   97   99 1   
   102   97  102 1   
   103   98  103 1   
   104   98  104 1   
   105   98  105 1   
   106   99  106 1   
   107   99  107 1   
   108   99  108 1   
   109  109  110 1   
   110  109  117 1   
   111  110  111 1   
   112  110  113 1   
   113  110  118 1   
   114  111  112 2   
   115  111  123 1   
   116  113  114 1   
   117  113  119 1   
   118  113  120 1   
   119  114  115 1   
   120  114  116 2   
   121  115  121 1   
   122  115  122 1   
   123  123  124 1   
   124  123  135 1   
   125  124  125 1   
   126  124  127 1   
   127  124  136 1   
   128  125  126 2   
   129  125  144 1   
   130  127  128 1   
   131  127  137 1   
   132  127  138 1   
   133  128  129 ar  
   134  128  130 ar  
   135  129  131 ar  
   136  129  139 1   
   137  130  132 ar  
   138  130  140 1   
   139  131  133 ar  
   140  131  141 1   
   141  132  133 ar  
   142  132  142 1   
   143  133  134 1   
   144  134  143 1   
   145  144  145 1   
   146  144  153 1   
   147  145  146 1   
   148  145  148 1   
   149  145  154 1   
   150  146  147 2   
   151  146  159 1   
   152  148  149 1   
   153  148  155 1   
   154  148  156 1   
   155  149  150 1   
   156  149  157 1   
   157  149  158 1   
   158  150  151 1   
   159  150  152 1   
   160  159  160 1   
   161  159  168 1   
   162  160  161 1   
   163  160  163 1   
   164  160  169 1   
   165  161  162 2   
   166  161  174 1   
   167  163  164 1   
   168  163  170 1   
   169  163  171 1   
   170  164  165 1   
   171  164  172 1   
   172  164  173 1   
   173  165  166 1   
   174  165  167 1   
   175  174  175 1   
   176  174  179 1   
   177  175  176 1   
   178  175  177 1   
   179  175  178 1   
   180  181  182 1   
   181  181  183 1   
   182  184  185 1   
   183  184  186 1   
   184  187  188 1   
   185  187  189 1   
   186  190  191 1   
   187  190  192 1   
   188  193  194 1   
   189  193  195 1   
   190  196  197 1   
   191  196  198 1   
@<TRIPOS>SUBSTRUCTURE
     1 MOL         1 TEMP              0 ****  ****    0 ROOT
