@<TRIPOS>MOLECULE
MOL
  181   177     1     0     0
SMALL
resp


@<TRIPOS>ATOM
      1 C1          9.0540    7.1830   -2.3510 c3        1 MOL     -0.358431
      2 C2          8.5200    6.5910   -1.0270 c         1 MOL      0.638238
      3 O1          8.9380    6.9980    0.0400 o         1 MOL     -0.581704
      4 H1          9.8570    7.8880   -2.1360 hc        1 MOL      0.100898
      5 H2          9.4360    6.3800   -2.9810 hc        1 MOL      0.100898
      6 H3          8.2460    7.7000   -2.8700 hc        1 MOL      0.100898
      7 N1          7.6260    5.5400   -1.0630 n         1 MOL     -0.195372
      8 C3          7.2000    4.8160   -2.2030 c3        1 MOL     -0.593863
      9 C4          6.9740    3.2980   -1.9510 c         1 MOL      0.766265
     10 O2          6.5420    2.8630   -0.8460 o         1 MOL     -0.536036
     11 C5          5.9480    5.4490   -2.8360 c3        1 MOL     -0.003220
     12 C6          4.7020    5.5010   -1.9240 c         1 MOL      0.586562
     13 O3          3.6320    5.8520   -2.5180 o         1 MOL     -0.660620
     14 O4          4.7840    5.2910   -0.6710 o         1 MOL     -0.660620
     15 H4          7.3070    5.1920   -0.1700 hn        1 MOL      0.156670
     16 H5          8.0120    4.8600   -2.9300 h1        1 MOL      0.162189
     17 H6          5.5670    4.8190   -3.6400 hc        1 MOL      0.056498
     18 H7          6.2500    6.3700   -3.3360 hc        1 MOL      0.056498
     19 N2          7.0680    2.4730   -2.9990 n         1 MOL     -0.486072
     20 C7          6.9110    1.0040   -3.0090 c3        1 MOL      0.064092
     21 C8          7.8740    0.4150   -1.9720 c         1 MOL      0.562750
     22 O5          9.0800    0.3590   -2.1650 o         1 MOL     -0.517803
     23 C9          7.2060    0.4200   -4.4240 c3        1 MOL     -0.423634
     24 H8          7.2010    2.8850   -3.8990 hn        1 MOL      0.307138
     25 H9          5.9120    0.7210   -2.6660 h1        1 MOL      0.075713
     26 H10         6.4640    0.8270   -5.1090 hc        1 MOL      0.136005
     27 H11         8.2410    0.6650   -4.6540 hc        1 MOL      0.136005
     28 H12         7.1240   -0.6660   -4.4420 hc        1 MOL      0.136005
     29 N3          7.2820    0.0250   -0.7810 n         1 MOL     -0.418854
     30 C10         8.0530   -0.6210    0.2870 c3        1 MOL      0.126006
     31 C11         8.1150   -2.1260   -0.1270 c         1 MOL      0.466198
     32 O6          7.4110   -2.6250   -0.9480 o         1 MOL     -0.505826
     33 C12         7.5990   -0.3200    1.7230 c3        1 MOL     -0.021392
     34 C13         6.6990    0.9760    1.7770 c         1 MOL      0.512702
     35 O7          5.3860    0.9250    1.6810 o         1 MOL     -0.649584
     36 O8          7.2490    2.1140    1.8400 o         1 MOL     -0.649584
     37 H13         6.2810    0.0880   -0.6720 hn        1 MOL      0.248243
     38 H14         9.0670   -0.2710    0.0950 h1        1 MOL      0.020205
     39 H15         8.3470   -0.2840    2.5050 hc        1 MOL      0.002888
     40 H16         7.0070   -1.2150    1.9580 hc        1 MOL      0.002888
     41 N4          8.9990   -2.9190    0.4980 n         1 MOL     -0.271117
     42 C14         9.2270   -4.4030    0.3370 c3        1 MOL     -0.325499
     43 C15         8.1260   -5.3810    0.8630 c         1 MOL      0.534747
     44 O9          8.2660   -6.6170    0.8490 o         1 MOL     -0.526567
     45 H17         9.6560   -2.4090    1.0670 hn        1 MOL      0.199193
     46 H18        10.0880   -4.6370    0.9720 h1        1 MOL      0.154072
     47 H19         9.4680   -4.6280   -0.7060 h1        1 MOL      0.154072
     48 N5          6.9970   -4.7240    1.2460 n         1 MOL     -0.369020
     49 C16         5.9390   -5.5140    1.9660 c3        1 MOL      0.008950
     50 C17         4.5450   -5.1200    1.4520 c         1 MOL      0.549880
     51 O10         3.5560   -5.2240    2.1340 o         1 MOL     -0.482576
     52 C18         6.1690   -5.2450    3.4640 c3        1 MOL     -0.254674
     53 C19         6.1590   -3.7600    3.8550 c         1 MOL      0.679787
     54 N6          7.3230   -3.2310    3.8600 n         1 MOL     -0.789508
     55 O11         5.1790   -3.0510    3.8660 o         1 MOL     -0.551570
     56 H20         6.9680   -3.7130    1.2220 hn        1 MOL      0.335483
     57 H21         6.0870   -6.5840    1.8260 h1        1 MOL      0.135044
     58 H22         7.1400   -5.6560    3.7220 hc        1 MOL      0.072484
     59 H23         5.3870   -5.7060    4.0820 hc        1 MOL      0.072484
     60 H24         8.1190   -3.8250    3.6830 hn        1 MOL      0.339308
     61 H25         7.3940   -2.2170    3.8050 hn        1 MOL      0.339308
     62 N7          4.4220   -4.7080    0.2280 n         1 MOL     -0.495334
     63 C20         3.1660   -4.2560   -0.4260 c3        1 MOL      0.009376
     64 C21         2.1350   -5.3400   -0.6590 c         1 MOL      0.673005
     65 O12         2.3440   -6.4510   -0.2630 o         1 MOL     -0.557809
     66 H26         5.2660   -4.5010   -0.2950 hn        1 MOL      0.271553
     67 H27         3.3880   -3.7620   -1.3760 h1        1 MOL      0.067344
     68 H28         2.6270   -3.5110    0.1610 h1        1 MOL      0.067344
     69 N8          1.0370   -5.0740   -1.3480 n         1 MOL     -0.590705
     70 C22         0.4560   -3.9490   -1.9530 c3        1 MOL      0.151925
     71 C23        -0.6200   -3.4010   -1.0400 c         1 MOL      0.615272
     72 O13        -1.2790   -4.1630   -0.3500 o         1 MOL     -0.497778
     73 C24        -0.0650   -4.2830   -3.3450 c3        1 MOL      0.335096
     74 C25         1.1090   -4.3220   -4.3020 c3        1 MOL     -0.364408
     75 O14        -0.7930   -5.5160   -3.2860 oh        1 MOL     -0.592711
     76 H29         0.4330   -5.8740   -1.4910 hn        1 MOL      0.331652
     77 H30         1.2220   -3.1810   -2.0610 h1        1 MOL     -0.003396
     78 H31        -0.7410   -3.5070   -3.7100 h1        1 MOL      0.013331
     79 H32        -1.3420   -5.5010   -4.0770 ho        1 MOL      0.403516
     80 H33         1.7420   -5.1900   -4.0920 hc        1 MOL      0.081321
     81 H34         0.7590   -4.4530   -5.3290 hc        1 MOL      0.081321
     82 H35         1.6730   -3.4090   -4.1480 hc        1 MOL      0.081321
     83 N9         -0.8440   -2.0760   -1.1820 n         1 MOL     -0.740208
     84 C26        -1.9840   -1.3000   -0.5740 c3        1 MOL     -0.046124
     85 C27        -2.5120   -0.2080   -1.6340 c         1 MOL      0.486447
     86 O15        -1.8030    0.5930   -2.2890 o         1 MOL     -0.546301
     87 C28        -1.6280   -0.6040    0.7670 c3        1 MOL     -0.009348
     88 C29        -0.8890   -1.5460    1.6440 c3        1 MOL      0.273146
     89 C30        -2.7820    0.2860    1.3260 c3        1 MOL     -0.012646
     90 C31        -0.2870   -0.9040    2.8790 c3        1 MOL     -0.322256
     91 H36        -0.3970   -1.5270   -1.9050 hn        1 MOL      0.335076
     92 H37        -2.7890   -2.0130   -0.4000 h1        1 MOL      0.148284
     93 H38        -0.8540    0.1510    0.6350 hc        1 MOL      0.021985
     94 H39        -0.0950   -2.1960    1.2720 hc        1 MOL     -0.010501
     95 H40        -1.6520   -2.2580    1.9790 hc        1 MOL     -0.010501
     96 H41        -3.7010   -0.2760    1.1540 hc        1 MOL      0.006102
     97 H42        -2.5790    0.4800    2.3840 hc        1 MOL      0.006102
     98 H43        -2.7540    1.2120    0.7510 hc        1 MOL      0.006102
     99 H44         0.4820   -0.1590    2.6610 hc        1 MOL      0.056445
    100 H45        -1.0710   -0.4930    3.5300 hc        1 MOL      0.056445
    101 H46         0.1500   -1.6970    3.4960 hc        1 MOL      0.056445
    102 N10        -3.8430   -0.3270   -1.9150 n         1 MOL     -0.337851
    103 C32        -4.8770   -1.2920   -1.5170 c3        1 MOL      0.011035
    104 C33        -6.3010   -0.6200   -1.6340 c         1 MOL      0.636781
    105 O16        -6.4690    0.4330   -2.2690 o         1 MOL     -0.544980
    106 C34        -4.7810   -2.4970   -2.5530 c3        1 MOL     -0.401194
    107 C35        -5.5800   -3.7480   -2.0990 c         1 MOL      0.659579
    108 O17        -5.1800   -4.4660   -1.1110 o         1 MOL     -0.689855
    109 O18        -6.6850   -4.0040   -2.5970 o         1 MOL     -0.689855
    110 H47        -4.1310    0.3130   -2.6380 hn        1 MOL      0.275370
    111 H48        -4.6590   -1.6080   -0.4980 h1        1 MOL      0.043596
    112 H49        -3.7260   -2.7480   -2.4720 hc        1 MOL      0.105347
    113 H50        -5.0590   -2.2380   -3.5760 hc        1 MOL      0.105347
    114 N11        -7.2810   -1.2730   -0.9800 n         1 MOL     -0.568271
    115 C36        -8.5780   -0.6350   -0.6770 c3        1 MOL      0.527756
    116 C37        -9.3120   -1.2580    0.5630 c         1 MOL      0.060956
    117 O19        -9.2480   -2.4880    0.6570 o         1 MOL     -0.445526
    118 C38        -9.4830   -0.8560   -1.8780 c3        1 MOL     -0.274173
    119 C39       -10.8700   -0.1980   -1.7040 ca        1 MOL      0.078757
    120 C40       -11.9900   -0.9140   -1.1820 ca        1 MOL     -0.126298
    121 C41       -11.0490    1.1540   -2.0450 ca        1 MOL     -0.126298
    122 C42       -13.2870   -0.2630   -1.0180 ca        1 MOL     -0.172344
    123 C43       -12.2750    1.7840   -1.8570 ca        1 MOL     -0.172344
    124 C44       -13.3690    1.0850   -1.2960 ca        1 MOL     -0.095192
    125 H51        -7.0050   -2.0460   -0.3970 hn        1 MOL      0.357914
    126 H52        -8.3340    0.3960   -0.4250 h1        1 MOL     -0.114879
    127 H53        -9.4960   -1.9080   -2.1670 hc        1 MOL      0.109153
    128 H54        -8.9930   -0.4060   -2.7420 hc        1 MOL      0.109153
    129 H55       -11.9050   -1.9480   -0.8970 ha        1 MOL      0.131839
    130 H56       -10.2590    1.7550   -2.4540 ha        1 MOL      0.131839
    131 H57       -14.1120   -0.7320   -0.4910 ha        1 MOL      0.120324
    132 H58       -12.4380    2.8460   -1.9820 ha        1 MOL      0.120324
    133 H59       -14.3060    1.5950   -1.1320 ha        1 MOL      0.086613
    134 N12        -9.7810   -0.4700    1.5280 n         1 MOL      0.123666
    135 C45       -10.2670    0.9250    1.4290 c3        1 MOL     -0.170634
    136 C46        -9.1940    2.0060    1.4690 c         1 MOL      0.529360
    137 O20        -9.4260    3.1060    0.9390 o         1 MOL     -0.545257
    138 C47       -11.3600    1.0230    2.5270 c3        1 MOL     -0.009817
    139 C48       -10.8420    0.0620    3.6130 c3        1 MOL     -0.033099
    140 C49       -10.2250   -1.0700    2.7840 c3        1 MOL     -0.181814
    141 H60       -10.7910    1.0280    0.4820 h1        1 MOL      0.147640
    142 H61       -11.4520    2.0410    2.9100 hc        1 MOL      0.025004
    143 H62       -12.3180    0.6690    2.1420 hc        1 MOL      0.025004
    144 H63       -10.1080    0.5090    4.2800 hc        1 MOL      0.024131
    145 H64       -11.6820   -0.3370    4.1810 hc        1 MOL      0.024131
    146 H65        -9.3830   -1.6120    3.2130 h1        1 MOL      0.088851
    147 H66       -10.9640   -1.8630    2.6310 h1        1 MOL      0.088851
    148 N13        -7.9820    1.7070    1.9120 n         1 MOL     -0.386581
    149 C50        -6.7810    2.6280    1.8360 c3        1 MOL      0.050225
    150 C51        -5.6120    2.3600    2.8210 c         1 MOL      0.417145
    151 O21        -5.3770    1.2510    3.2480 o         1 MOL     -0.570336
    152 C52        -6.2930    2.3980    0.3800 c3        1 MOL      0.095639
    153 C53        -5.0640    3.2120   -0.0450 c3        1 MOL     -0.127813
    154 C54        -5.5120    4.6660   -0.5280 c         1 MOL      0.664923
    155 O22        -4.9880    5.1700   -1.5680 o         1 MOL     -0.693345
    156 O23        -6.4290    5.2640    0.0990 o         1 MOL     -0.693345
    157 H67        -7.8630    0.7680    2.2650 hn        1 MOL      0.241782
    158 H68        -7.0710    3.6660    1.9760 h1        1 MOL      0.074182
    159 H69        -7.0700    2.6820   -0.3310 hc        1 MOL      0.039705
    160 H70        -6.0690    1.3320    0.3600 hc        1 MOL      0.039705
    161 H71        -4.7090    2.7070   -0.9460 hc        1 MOL     -0.006936
    162 H72        -4.2720    3.2030    0.7000 hc        1 MOL     -0.006936
    163 N14        -4.9640    3.3150    3.4480 n         1 MOL     -0.315872
    164 C55        -4.8960    4.7730    3.1980 c3        1 MOL     -0.152192
    165 H73        -4.3820    4.9550    2.2540 h1        1 MOL      0.080677
    166 H74        -5.9050    5.1800    3.1460 h1        1 MOL      0.080677
    167 H75        -4.3490    5.2550    4.0090 h1        1 MOL      0.080677
    168 H76        -4.4430    2.9470    4.2280 hn        1 MOL      0.266918
    169 Ca1         5.0920    3.5280    1.3600 Ca        1 MOL      1.772620
    170 O24         5.2330    3.3750    4.1820 oh        1 MOL     -0.887644
    171 H77         5.7010    2.6330    4.5570 ho        1 MOL      0.431296
    172 H78         5.1200    3.9880    4.9150 ho        1 MOL      0.431296
    173 O25         2.8130    3.0980    2.5780 oh        1 MOL     -0.887644
    174 H79         3.0260    3.2340    3.5040 ho        1 MOL      0.431296
    175 H80         2.2740    2.3150    2.5700 ho        1 MOL      0.431296
    176 O26         3.2770    2.2980   -0.2780 oh        1 MOL     -0.887644
    177 O27         7.1930    4.9600    2.0800 oh        1 MOL     -0.887644
    178 H81         2.8900    2.9740   -0.8430 ho        1 MOL      0.431296
    179 H82         8.1110    4.6940    2.2120 ho        1 MOL      0.431296
    180 H83         2.7640    1.5130   -0.4590 ho        1 MOL      0.431296
    181 H84         7.1600    5.8700    2.3730 ho        1 MOL      0.431296
@<TRIPOS>BOND
     1    1    2 1   
     2    1    4 1   
     3    1    5 1   
     4    1    6 1   
     5    2    3 2   
     6    2    7 1   
     7    7    8 1   
     8    7   15 1   
     9    8    9 1   
    10    8   11 1   
    11    8   16 1   
    12    9   10 2   
    13    9   19 1   
    14   11   12 1   
    15   11   17 1   
    16   11   18 1   
    17   12   13 1   
    18   12   14 1   
    19   19   20 1   
    20   19   24 1   
    21   20   21 1   
    22   20   23 1   
    23   20   25 1   
    24   21   22 2   
    25   21   29 1   
    26   23   26 1   
    27   23   27 1   
    28   23   28 1   
    29   29   30 1   
    30   29   37 1   
    31   30   31 1   
    32   30   33 1   
    33   30   38 1   
    34   31   32 2   
    35   31   41 1   
    36   33   34 1   
    37   33   39 1   
    38   33   40 1   
    39   34   35 1   
    40   34   36 1   
    41   41   42 1   
    42   41   45 1   
    43   42   43 1   
    44   42   46 1   
    45   42   47 1   
    46   43   44 2   
    47   43   48 1   
    48   48   49 1   
    49   48   56 1   
    50   49   50 1   
    51   49   52 1   
    52   49   57 1   
    53   50   51 2   
    54   50   62 1   
    55   52   53 1   
    56   52   58 1   
    57   52   59 1   
    58   53   54 1   
    59   53   55 2   
    60   54   60 1   
    61   54   61 1   
    62   62   63 1   
    63   62   66 1   
    64   63   64 1   
    65   63   67 1   
    66   63   68 1   
    67   64   65 2   
    68   64   69 1   
    69   69   70 1   
    70   69   76 1   
    71   70   71 1   
    72   70   73 1   
    73   70   77 1   
    74   71   72 2   
    75   71   83 1   
    76   73   74 1   
    77   73   75 1   
    78   73   78 1   
    79   74   80 1   
    80   74   81 1   
    81   74   82 1   
    82   75   79 1   
    83   83   84 1   
    84   83   91 1   
    85   84   85 1   
    86   84   87 1   
    87   84   92 1   
    88   85   86 2   
    89   85  102 1   
    90   87   88 1   
    91   87   89 1   
    92   87   93 1   
    93   88   90 1   
    94   88   94 1   
    95   88   95 1   
    96   89   96 1   
    97   89   97 1   
    98   89   98 1   
    99   90   99 1   
   100   90  100 1   
   101   90  101 1   
   102  102  103 1   
   103  102  110 1   
   104  103  104 1   
   105  103  106 1   
   106  103  111 1   
   107  104  105 2   
   108  104  114 1   
   109  106  107 1   
   110  106  112 1   
   111  106  113 1   
   112  107  108 1   
   113  107  109 1   
   114  114  115 1   
   115  114  125 1   
   116  115  116 1   
   117  115  118 1   
   118  115  126 1   
   119  116  117 2   
   120  116  134 1   
   121  118  119 1   
   122  118  127 1   
   123  118  128 1   
   124  119  120 ar  
   125  119  121 ar  
   126  120  122 ar  
   127  120  129 1   
   128  121  123 ar  
   129  121  130 1   
   130  122  124 ar  
   131  122  131 1   
   132  123  124 ar  
   133  123  132 1   
   134  124  133 1   
   135  134  135 1   
   136  134  140 1   
   137  135  136 1   
   138  135  138 1   
   139  135  141 1   
   140  136  137 2   
   141  136  148 1   
   142  138  139 1   
   143  138  142 1   
   144  138  143 1   
   145  139  140 1   
   146  139  144 1   
   147  139  145 1   
   148  140  146 1   
   149  140  147 1   
   150  148  149 1   
   151  148  157 1   
   152  149  150 1   
   153  149  152 1   
   154  149  158 1   
   155  150  151 2   
   156  150  163 1   
   157  152  153 1   
   158  152  159 1   
   159  152  160 1   
   160  153  154 1   
   161  153  161 1   
   162  153  162 1   
   163  154  155 1   
   164  154  156 1   
   165  163  164 1   
   166  163  168 1   
   167  164  165 1   
   168  164  166 1   
   169  164  167 1   
   170  170  171 1   
   171  170  172 1   
   172  173  174 1   
   173  173  175 1   
   174  176  178 1   
   175  176  180 1   
   176  177  179 1   
   177  177  181 1   
@<TRIPOS>SUBSTRUCTURE
     1 MOL         1 TEMP              0 ****  ****    0 ROOT
