@<TRIPOS>MOLECULE
MOL
  198   191     1     0     0
SMALL
resp


@<TRIPOS>ATOM
      1 C1          5.5740    2.6500    5.8750 c3        1 MOL     -0.537943
      2 C2          5.0560    2.1040    4.5610 c         1 MOL      0.791199
      3 O1          4.7530    2.8710    3.6870 o         1 MOL     -0.581060
      4 H1          5.6080    1.8490    6.6130 hc        1 MOL      0.138392
      5 H2          6.5770    3.0530    5.7320 hc        1 MOL      0.138392
      6 H3          4.9120    3.4410    6.2280 hc        1 MOL      0.138392
      7 N1          4.9220    0.7800    4.3770 n         1 MOL     -0.630010
      8 C3          4.8140    0.1550    3.0270 c3        1 MOL      0.382286
      9 C4          3.4410    0.0190    2.3820 c         1 MOL      0.242691
     10 O2          3.2850   -0.3890    1.2310 o         1 MOL     -0.492768
     11 C5          5.5400   -1.1800    3.0280 c3        1 MOL     -0.094951
     12 C6          6.9760   -1.1100    3.5030 c         1 MOL      0.694818
     13 O3          7.8920   -1.3120    2.6450 o         1 MOL     -0.692075
     14 O4          7.1470   -0.9950    4.7120 o         1 MOL     -0.692075
     15 H4          5.2170    0.2240    5.1690 hn        1 MOL      0.256523
     16 H5          5.3560    0.8030    2.3420 h1        1 MOL      0.040945
     17 H6          5.5700   -1.5090    1.9890 hc        1 MOL     -0.030997
     18 H7          5.0100   -1.9030    3.6370 hc        1 MOL     -0.030997
     19 N2          2.4320    0.6270    2.9160 n         1 MOL     -0.281369
     20 C7          1.0120    0.5710    2.5660 c3        1 MOL      0.161266
     21 C8          0.5150    1.8930    1.9730 c         1 MOL      0.370902
     22 O5          0.8630    2.9500    2.4830 o         1 MOL     -0.479417
     23 C9          0.0530    0.1610    3.6670 c3        1 MOL      0.043982
     24 C10         0.1530   -1.3230    4.1890 c3        1 MOL     -0.026740
     25 C11        -0.8090   -1.5490    5.3050 c3        1 MOL     -0.012467
     26 C12        -0.8760   -2.9760    5.9000 c3        1 MOL     -0.045517
     27 N3          0.2750   -3.1150    6.8650 n4        1 MOL     -0.382796
     28 H8          2.6460    0.9950    3.8300 hn        1 MOL      0.173499
     29 H9          0.8990   -0.1630    1.7760 h1        1 MOL      0.109242
     30 H10        -0.9560    0.3860    3.3320 hc        1 MOL     -0.006246
     31 H11         0.2840    0.7880    4.5290 hc        1 MOL     -0.006246
     32 H12         1.1800   -1.4630    4.5220 hc        1 MOL      0.002556
     33 H13         0.0350   -2.0180    3.3570 hc        1 MOL      0.002556
     34 H14        -1.8100   -1.3730    4.9140 hc        1 MOL      0.044006
     35 H15        -0.7010   -0.7720    6.0760 hc        1 MOL      0.044006
     36 H16        -0.9060   -3.6910    5.0790 hx        1 MOL      0.111718
     37 H17        -1.8440   -3.0110    6.3960 hx        1 MOL      0.111718
     38 H18         1.1440   -3.0600    6.3680 hn        1 MOL      0.330718
     39 H19         0.3180   -2.4420    7.6110 hn        1 MOL      0.330718
     40 H20         0.1260   -3.9880    7.3560 hn        1 MOL      0.330718
     41 N4         -0.3380    1.9570    0.9330 n         1 MOL     -0.223044
     42 C13        -0.9680    0.9590    0.0820 c3        1 MOL     -0.054000
     43 C14        -1.6720   -0.2380    0.7630 c         1 MOL      0.431425
     44 O6         -1.1060   -1.3290    0.7490 o         1 MOL     -0.656976
     45 C15        -0.0760    0.5480   -1.1150 c3        1 MOL     -0.504150
     46 C16         0.4570    1.6820   -2.0490 c         1 MOL      0.873199
     47 O7          0.3870    2.9060   -1.7010 o         1 MOL     -0.702502
     48 O8          0.7580    1.4060   -3.2130 o         1 MOL     -0.702502
     49 H21        -0.5300    2.9260    0.7620 hn        1 MOL      0.135963
     50 H22        -1.8030    1.4080   -0.4590 h1        1 MOL      0.146777
     51 H23        -0.5400   -0.1910   -1.7560 hc        1 MOL      0.122697
     52 H24         0.7130   -0.0210   -0.6320 hc        1 MOL      0.122697
     53 N5         -2.8200   -0.0020    1.4830 n         1 MOL     -0.095894
     54 C17        -3.6290    1.2340    1.5730 c3        1 MOL      0.046184
     55 C18        -4.8500    1.1510    2.5510 c         1 MOL      0.369232
     56 O9         -5.0180    0.1050    3.1010 o         1 MOL     -0.503807
     57 H25        -3.1610   -0.8670    1.9000 hn        1 MOL      0.167633
     58 H26        -3.8250    1.5270    0.5450 h1        1 MOL      0.007975
     59 H27        -2.9960    2.0620    1.9010 h1        1 MOL      0.007975
     60 N6         -5.7420    2.1360    2.4920 n         1 MOL     -0.265588
     61 C19        -5.7680    3.2610    1.5060 c3        1 MOL     -0.215197
     62 C20        -6.3850    2.7410    0.2030 c         1 MOL      0.648768
     63 O10        -6.1740    3.4730   -0.7600 o         1 MOL     -0.613549
     64 C21        -6.6660    4.3680    2.0720 c3        1 MOL     -0.031143
     65 C22        -8.1060    4.0210    2.3920 c         1 MOL      0.674679
     66 O11        -8.3400    2.8510    2.8260 o         1 MOL     -0.685031
     67 O12        -8.9550    4.9150    2.3330 o         1 MOL     -0.685031
     68 H28        -6.5130    2.0610    3.1390 hn        1 MOL      0.242648
     69 H29        -4.7740    3.6620    1.3150 h1        1 MOL      0.108417
     70 H30        -6.7500    5.1520    1.3280 hc        1 MOL      0.014792
     71 H31        -6.1460    4.7850    2.9300 hc        1 MOL      0.014792
     72 N7         -7.0380    1.6200    0.1080 n         1 MOL     -0.306214
     73 C23        -7.6100    1.0600   -1.1250 c3        1 MOL     -0.040943
     74 C24        -7.3600   -0.3980   -1.0900 c         1 MOL      0.523039
     75 O13        -7.1310   -0.9200    0.0210 o         1 MOL     -0.496575
     76 H32        -7.1540    0.9680    0.8690 hn        1 MOL      0.244777
     77 H33        -7.1790    1.5920   -1.9730 h1        1 MOL      0.062661
     78 H34        -8.6890    1.1730   -1.1670 h1        1 MOL      0.062661
     79 N8         -7.1880   -0.9970   -2.2640 n         1 MOL     -0.540524
     80 C25        -6.5370   -2.3760   -2.4400 c3        1 MOL      0.261139
     81 C26        -5.2400   -2.5460   -1.5980 c         1 MOL      0.199432
     82 O14        -4.3860   -1.6090   -1.6210 o         1 MOL     -0.451850
     83 C27        -6.1230   -2.8120   -3.8590 c3        1 MOL      0.374238
     84 C28        -5.5260   -1.6730   -4.7700 c3        1 MOL     -0.163447
     85 O15        -7.2380   -3.2780   -4.6060 oh        1 MOL     -0.698252
     86 H35        -7.5030   -0.4740   -3.0700 hn        1 MOL      0.335565
     87 H36        -7.2350   -3.1650   -2.1380 h1        1 MOL      0.033376
     88 H37        -5.3760   -3.5990   -3.7950 h1        1 MOL     -0.015657
     89 H38        -6.9950   -3.7950   -5.3780 ho        1 MOL      0.420005
     90 H39        -4.7110   -1.2260   -4.2010 hc        1 MOL      0.032845
     91 H40        -5.1600   -2.0230   -5.7320 hc        1 MOL      0.032845
     92 H41        -6.2730   -0.8770   -4.7990 hc        1 MOL      0.032845
     93 N9         -5.0620   -3.6180   -0.8440 n         1 MOL     -0.499625
     94 C29        -4.0330   -3.7400    0.2630 c3        1 MOL      0.331318
     95 C30        -2.7740   -4.3400   -0.3200 c         1 MOL      0.237058
     96 O16        -2.5040   -5.4610    0.1050 o         1 MOL     -0.491671
     97 C31        -4.6210   -4.3590    1.5560 c3        1 MOL      0.059441
     98 C32        -6.0100   -3.7710    1.8340 c3        1 MOL     -0.223118
     99 C33        -3.6790   -3.9730    2.7150 c3        1 MOL     -0.032994
    100 C34        -6.6440   -4.2360    3.1680 c3        1 MOL     -0.096661
    101 H42        -5.8320   -4.2700   -0.8210 hn        1 MOL      0.289265
    102 H43        -3.8080   -2.7190    0.5570 h1        1 MOL      0.014361
    103 H44        -4.5450   -5.4400    1.5000 hc        1 MOL      0.004715
    104 H45        -6.6990   -4.0210    1.0210 hc        1 MOL      0.116317
    105 H46        -5.9260   -2.6810    1.9120 hc        1 MOL      0.116317
    106 H47        -2.6880   -4.3470    2.4870 hc        1 MOL      0.012273
    107 H48        -3.6250   -2.9040    2.9620 hc        1 MOL      0.012273
    108 H49        -3.8490   -4.5280    3.6460 hc        1 MOL      0.012273
    109 H50        -6.1690   -3.7330    4.0130 hc        1 MOL      0.029060
    110 H51        -7.7280   -4.1350    3.1320 hc        1 MOL      0.029060
    111 H52        -6.4550   -5.3060    3.2000 hc        1 MOL      0.029060
    112 N10        -2.1400   -3.7470   -1.3460 n         1 MOL     -0.097652
    113 C35        -1.1090   -4.4900   -2.0700 c3        1 MOL     -0.230860
    114 C36         0.2600   -4.3230   -1.5330 c         1 MOL      0.419278
    115 O17         1.1250   -5.1590   -1.8470 o         1 MOL     -0.556289
    116 C37        -1.2280   -4.0110   -3.5680 c3        1 MOL      0.329264
    117 C38        -1.1530   -2.4950   -3.7280 c3        1 MOL     -0.201470
    118 O18        -2.4380   -4.3790   -4.1730 oh        1 MOL     -0.581456
    119 H53        -2.4440   -2.8840   -1.7640 hn        1 MOL      0.281556
    120 H54        -1.3670   -5.5510   -2.0840 h1        1 MOL      0.135909
    121 H55        -0.3540   -4.4420   -4.0490 h1        1 MOL      0.017164
    122 H56        -2.4790   -5.3470   -4.1390 ho        1 MOL      0.363861
    123 H57        -0.4770   -2.1300   -2.9440 hc        1 MOL      0.063000
    124 H58        -0.8360   -2.2760   -4.7410 hc        1 MOL      0.063000
    125 H59        -2.1530   -2.0880   -3.5230 hc        1 MOL      0.063000
    126 N11         0.5000   -3.4010   -0.6060 n         1 MOL     -0.123694
    127 C39         1.8680   -3.0880   -0.2460 c3        1 MOL      0.001644
    128 C40         2.7350   -2.5280   -1.4330 c         1 MOL      0.462760
    129 O19         2.4860   -2.6540   -2.6380 o         1 MOL     -0.475046
    130 C41         2.5420   -4.0370    0.7760 c3        1 MOL      0.274561
    131 C42         1.4990   -4.5540    1.8160 c3        1 MOL     -0.279137
    132 O20         3.5210   -3.3820    1.5160 oh        1 MOL     -0.649958
    133 H60        -0.2590   -2.7810   -0.3950 hn        1 MOL      0.151237
    134 H61         1.6520   -2.2310    0.3950 h1        1 MOL      0.139684
    135 H62         3.0050   -4.8560    0.2440 h1        1 MOL      0.024137
    136 H63         3.4690   -3.7840    2.3900 ho        1 MOL      0.397644
    137 H64         2.0490   -5.3180    2.3630 hc        1 MOL      0.067035
    138 H65         1.1270   -3.7810    2.4870 hc        1 MOL      0.067035
    139 H66         0.7270   -5.1650    1.3520 hc        1 MOL      0.067035
    140 N12         3.8960   -1.9170   -1.0790 n         1 MOL     -0.462327
    141 C43         5.0410   -1.4860   -2.0330 c3        1 MOL      0.110921
    142 C44         5.3860   -0.0500   -2.0520 c         1 MOL      0.687067
    143 O21         6.0960    0.3790   -3.0000 o         1 MOL     -0.625381
    144 C45         6.2350   -2.4580   -1.8410 c3        1 MOL     -0.244637
    145 C46         7.4070   -2.3760   -2.8920 c3        1 MOL      0.115645
    146 C47         8.3830   -3.5680   -2.8840 c3        1 MOL     -0.293095
    147 C48         7.7850   -4.7170   -3.7140 c3        1 MOL      0.107049
    148 N13         8.6350   -5.9030   -3.8560 n4        1 MOL     -0.306991
    149 H67         4.0820   -1.9020   -0.0920 hn        1 MOL      0.321052
    150 H68         4.6910   -1.6190   -3.0460 h1        1 MOL      0.060459
    151 H69         5.8480   -3.4710   -1.9060 hc        1 MOL      0.102906
    152 H70         6.7290   -2.4410   -0.8720 hc        1 MOL      0.102906
    153 H71         7.8150   -1.3940   -2.6720 hc        1 MOL      0.032950
    154 H72         7.0780   -2.3590   -3.9370 hc        1 MOL      0.032950
    155 H73         8.6070   -3.8360   -1.8530 hc        1 MOL      0.103367
    156 H74         9.2930   -3.1610   -3.3450 hc        1 MOL      0.103367
    157 H75         7.6830   -4.2960   -4.7170 hx        1 MOL      0.059028
    158 H76         6.8210   -4.9750   -3.2790 hx        1 MOL      0.059028
    159 H77         8.7830   -6.3030   -2.9450 hn        1 MOL      0.306139
    160 H78         8.1860   -6.6630   -4.3630 hn        1 MOL      0.306139
    161 H79         9.5660   -5.6120   -4.1150 hn        1 MOL      0.306139
    162 N14         4.9250    0.7320   -1.0100 n         1 MOL     -0.496090
    163 C49         4.9480    2.1670   -0.9710 c3        1 MOL     -0.148778
    164 C50         6.3180    2.7150   -0.5890 c         1 MOL      0.509245
    165 O22         6.9800    2.3610    0.4300 o         1 MOL     -0.500987
    166 C51         3.8780    2.7450   -0.0420 c3        1 MOL      0.529132
    167 C52         3.5240    4.2370   -0.0840 c3        1 MOL     -0.253944
    168 C53         2.7840    4.7530   -1.3220 c         1 MOL      0.587444
    169 O23         3.1210    4.4590   -2.4960 o         1 MOL     -0.722024
    170 O24         1.7510    5.5040   -1.1180 o         1 MOL     -0.722024
    171 H80         4.2690    0.2670   -0.3940 hn        1 MOL      0.177670
    172 H81         4.7380    2.4510   -1.9950 h1        1 MOL      0.171571
    173 H82         4.2320    2.5770    0.9710 hc        1 MOL     -0.043213
    174 H83         2.9040    2.2900   -0.2260 hc        1 MOL     -0.043213
    175 H84         4.3660    4.9200    0.0430 hc        1 MOL      0.037065
    176 H85         2.9000    4.4310    0.7920 hc        1 MOL      0.037065
    177 N15         6.7330    3.6820   -1.3960 n         1 MOL     -0.296962
    178 C54         8.0830    4.2820   -1.4910 c3        1 MOL     -0.266838
    179 H86         8.0550    5.1300   -2.1770 h1        1 MOL      0.116651
    180 H87         8.3990    4.6230   -0.5050 h1        1 MOL      0.116651
    181 H88         8.7870    3.5380   -1.8620 h1        1 MOL      0.116651
    182 H89         6.2380    3.7160   -2.2640 hn        1 MOL      0.272330
    183 Ca1        -0.5800    5.3890   -2.1330 Ca        1 MOL      1.856080
    184 O25        -2.6790    3.6040   -2.1190 oh        1 MOL     -0.927001
    185 H90        -2.9110    2.7060   -2.3210 ho        1 MOL      0.440790
    186 H91        -3.5070    4.0840   -2.1890 ho        1 MOL      0.440790
    187 O26         0.3130    7.5300   -0.6640 oh        1 MOL     -0.927001
    188 H92         1.0580    6.9310   -0.5940 ho        1 MOL      0.440790
    189 H93         0.7050    8.3540   -0.9570 ho        1 MOL      0.440790
    190 O27         1.6690    5.9900   -3.8130 oh        1 MOL     -0.927001
    191 H94         2.3320    6.1800   -4.4730 ho        1 MOL      0.440790
    192 H95         2.1350    5.4740   -3.1480 ho        1 MOL      0.440790
    193 O28        -0.7720    3.5200   -4.2720 oh        1 MOL     -0.927001
    194 H96        -0.2290    2.7450   -4.1030 ho        1 MOL      0.440790
    195 H97        -1.4550    3.2100   -4.8690 ho        1 MOL      0.440790
    196 O29        -1.0990    7.5450   -3.5060 oh        1 MOL     -0.927001
    197 H98        -0.4530    7.9200   -4.1110 ho        1 MOL      0.440790
    198 H99        -1.8320    8.1600   -3.5380 ho        1 MOL      0.440790
@<TRIPOS>BOND
     1    1    2 1   
     2    1    4 1   
     3    1    5 1   
     4    1    6 1   
     5    2    3 2   
     6    2    7 1   
     7    7    8 1   
     8    7   15 1   
     9    8    9 1   
    10    8   11 1   
    11    8   16 1   
    12    9   10 2   
    13    9   19 1   
    14   11   12 1   
    15   11   17 1   
    16   11   18 1   
    17   12   13 1   
    18   12   14 1   
    19   19   20 1   
    20   19   28 1   
    21   20   21 1   
    22   20   23 1   
    23   20   29 1   
    24   21   22 2   
    25   21   41 1   
    26   23   24 1   
    27   23   30 1   
    28   23   31 1   
    29   24   25 1   
    30   24   32 1   
    31   24   33 1   
    32   25   26 1   
    33   25   34 1   
    34   25   35 1   
    35   26   27 1   
    36   26   36 1   
    37   26   37 1   
    38   27   38 1   
    39   27   39 1   
    40   27   40 1   
    41   41   42 1   
    42   41   49 1   
    43   42   43 1   
    44   42   45 1   
    45   42   50 1   
    46   43   44 2   
    47   43   53 1   
    48   45   46 1   
    49   45   51 1   
    50   45   52 1   
    51   46   47 1   
    52   46   48 1   
    53   53   54 1   
    54   53   57 1   
    55   54   55 1   
    56   54   58 1   
    57   54   59 1   
    58   55   56 2   
    59   55   60 1   
    60   60   61 1   
    61   60   68 1   
    62   61   62 1   
    63   61   64 1   
    64   61   69 1   
    65   62   63 2   
    66   62   72 1   
    67   64   65 1   
    68   64   70 1   
    69   64   71 1   
    70   65   66 1   
    71   65   67 1   
    72   72   73 1   
    73   72   76 1   
    74   73   74 1   
    75   73   77 1   
    76   73   78 1   
    77   74   75 2   
    78   74   79 1   
    79   79   80 1   
    80   79   86 1   
    81   80   81 1   
    82   80   83 1   
    83   80   87 1   
    84   81   82 2   
    85   81   93 1   
    86   83   84 1   
    87   83   85 1   
    88   83   88 1   
    89   84   90 1   
    90   84   91 1   
    91   84   92 1   
    92   85   89 1   
    93   93   94 1   
    94   93  101 1   
    95   94   95 1   
    96   94   97 1   
    97   94  102 1   
    98   95   96 2   
    99   95  112 1   
   100   97   98 1   
   101   97   99 1   
   102   97  103 1   
   103   98  100 1   
   104   98  104 1   
   105   98  105 1   
   106   99  106 1   
   107   99  107 1   
   108   99  108 1   
   109  100  109 1   
   110  100  110 1   
   111  100  111 1   
   112  112  113 1   
   113  112  119 1   
   114  113  114 1   
   115  113  116 1   
   116  113  120 1   
   117  114  115 2   
   118  114  126 1   
   119  116  117 1   
   120  116  118 1   
   121  116  121 1   
   122  117  123 1   
   123  117  124 1   
   124  117  125 1   
   125  118  122 1   
   126  126  127 1   
   127  126  133 1   
   128  127  128 1   
   129  127  130 1   
   130  127  134 1   
   131  128  129 2   
   132  128  140 1   
   133  130  131 1   
   134  130  132 1   
   135  130  135 1   
   136  131  137 1   
   137  131  138 1   
   138  131  139 1   
   139  132  136 1   
   140  140  141 1   
   141  140  149 1   
   142  141  142 1   
   143  141  144 1   
   144  141  150 1   
   145  142  143 2   
   146  142  162 1   
   147  144  145 1   
   148  144  151 1   
   149  144  152 1   
   150  145  146 1   
   151  145  153 1   
   152  145  154 1   
   153  146  147 1   
   154  146  155 1   
   155  146  156 1   
   156  147  148 1   
   157  147  157 1   
   158  147  158 1   
   159  148  159 1   
   160  148  160 1   
   161  148  161 1   
   162  162  163 1   
   163  162  171 1   
   164  163  164 1   
   165  163  166 1   
   166  163  172 1   
   167  164  165 2   
   168  164  177 1   
   169  166  167 1   
   170  166  173 1   
   171  166  174 1   
   172  167  168 1   
   173  167  175 1   
   174  167  176 1   
   175  168  169 1   
   176  168  170 1   
   177  177  178 1   
   178  177  182 1   
   179  178  179 1   
   180  178  180 1   
   181  178  181 1   
   182  184  185 1   
   183  184  186 1   
   184  187  188 1   
   185  187  189 1   
   186  190  191 1   
   187  190  192 1   
   188  193  194 1   
   189  193  195 1   
   190  196  197 1   
   191  196  198 1   
@<TRIPOS>SUBSTRUCTURE
     1 MOL         1 TEMP              0 ****  ****    0 ROOT
