@<TRIPOS>MOLECULE
MOL
  179   176     1     0     0
SMALL
resp


@<TRIPOS>ATOM
      1 C1          3.0630    1.2140    6.1780 c3        1 MOL     -0.454740
      2 C2          2.8800    1.6040    4.7190 c         1 MOL      0.738328
      3 O1          3.7920    1.7160    3.9420 o         1 MOL     -0.585732
      4 H1          2.2620    1.6510    6.7730 hc        1 MOL      0.116512
      5 H2          3.0320    0.1280    6.2710 hc        1 MOL      0.116512
      6 H3          4.0250    1.5820    6.5360 hc        1 MOL      0.116512
      7 N1          1.6390    1.8450    4.3380 n         1 MOL     -0.529218
      8 C3          1.2080    1.9890    2.9470 c3        1 MOL     -0.194141
      9 C4          1.7610    3.2300    2.2350 c         1 MOL      0.795026
     10 O2          1.4730    4.3500    2.6880 o         1 MOL     -0.553789
     11 C5         -0.2910    1.8920    2.9580 c3        1 MOL     -0.006361
     12 C6         -0.9240    1.7440    1.6110 c         1 MOL      0.654157
     13 O3         -2.1340    1.4960    1.5330 o         1 MOL     -0.745874
     14 O4         -0.1780    1.7490    0.5920 o         1 MOL     -0.745874
     15 H4          0.9610    1.8750    5.1000 hn        1 MOL      0.307368
     16 H5          1.5630    1.1210    2.4000 h1        1 MOL      0.110932
     17 H6         -0.6570    2.7850    3.4630 hc        1 MOL      0.015644
     18 H7         -0.5860    1.0350    3.5680 hc        1 MOL      0.015644
     19 N2          2.7420    2.9400    1.3590 n         1 MOL     -0.436331
     20 C7          3.4330    3.9960    0.5560 c3        1 MOL     -0.172961
     21 C8          2.4110    4.8580   -0.3530 c         1 MOL      0.385315
     22 O5          2.5700    6.0620   -0.3050 o         1 MOL     -0.483115
     23 C9          4.5510    3.3280   -0.2830 c3        1 MOL      0.242919
     24 C10         5.4170    4.3440   -1.0290 c3        1 MOL     -0.236020
     25 C11         6.5300    3.7820   -1.9220 c3        1 MOL      0.033373
     26 C12         7.6010    2.8340   -1.2570 c3        1 MOL      0.054913
     27 N3          8.7110    2.4060   -2.1460 n4        1 MOL     -0.301186
     28 H8          3.1230    1.9960    1.3500 hn        1 MOL      0.299760
     29 H9          3.9120    4.7990    1.1200 h1        1 MOL      0.135391
     30 H10         4.1240    2.6910   -1.0600 hc        1 MOL     -0.031490
     31 H11         5.1900    2.6950    0.3320 hc        1 MOL     -0.031490
     32 H12         5.7960    5.0330   -0.2780 hc        1 MOL      0.078465
     33 H13         4.7170    4.8030   -1.7320 hc        1 MOL      0.078465
     34 H14         7.2180    4.5620   -2.2430 hc        1 MOL      0.004504
     35 H15         6.0950    3.3020   -2.7960 hc        1 MOL      0.004504
     36 H16         6.9170    2.0450   -0.9350 hx        1 MOL      0.066354
     37 H17         8.1090    3.2610   -0.3840 hx        1 MOL      0.066354
     38 H18         9.6010    2.8750   -2.0440 hn        1 MOL      0.295703
     39 H19         8.8730    1.4380   -1.9120 hn        1 MOL      0.295703
     40 H20         8.4730    2.4710   -3.1240 hn        1 MOL      0.295703
     41 N4          1.4770    4.1600   -1.0220 n         1 MOL     -0.230096
     42 C13         0.3300    4.7750   -1.6810 c3        1 MOL      0.032883
     43 C14        -0.7810    5.2700   -0.7950 c         1 MOL      0.388069
     44 O6         -1.5780    6.1780   -1.2030 o         1 MOL     -0.560274
     45 C15        -0.2020    3.8420   -2.7870 c3        1 MOL     -0.308999
     46 C16        -0.7590    2.4500   -2.3610 c         1 MOL      0.821341
     47 O7         -1.8910    2.3620   -1.8350 o         1 MOL     -0.803166
     48 O8         -0.0640    1.3900   -2.5890 o         1 MOL     -0.803166
     49 H21         1.5260    3.1510   -0.9680 hn        1 MOL      0.247557
     50 H22         0.6370    5.6670   -2.2210 h1        1 MOL      0.095706
     51 H23         0.7140    3.7680   -3.3760 hc        1 MOL      0.096432
     52 H24        -1.0060    4.3270   -3.3400 hc        1 MOL      0.096432
     53 N5         -1.1030    4.6950    0.3740 n         1 MOL      0.068034
     54 C17        -2.2080    5.1510    1.2930 c3        1 MOL     -0.353409
     55 C18        -3.5890    4.7300    0.7540 c         1 MOL      0.634934
     56 O9         -4.6140    5.2160    1.2760 o         1 MOL     -0.588112
     57 H25        -0.6890    3.7940    0.5370 hn        1 MOL     -0.026314
     58 H26        -2.1160    6.2360    1.4090 h1        1 MOL      0.161900
     59 H27        -2.1880    4.7630    2.3140 h1        1 MOL      0.161900
     60 N6         -3.7960    3.9010   -0.2980 n         1 MOL     -0.375463
     61 C19        -5.0790    3.6550   -0.9750 c3        1 MOL      0.081629
     62 C20        -5.1390    2.0760   -1.2500 c         1 MOL      0.277375
     63 O10        -4.1910    1.3040   -0.9550 o         1 MOL     -0.329573
     64 C21        -4.9420    4.3310   -2.3460 c3        1 MOL     -0.181444
     65 C22        -5.0980    5.8770   -2.4610 c         1 MOL      0.693089
     66 N7         -4.0150    6.6330   -2.4130 n         1 MOL     -0.843223
     67 O11        -6.2190    6.3940   -2.5810 o         1 MOL     -0.601977
     68 H28        -3.0220    3.4800   -0.7950 hn        1 MOL      0.382143
     69 H29        -5.9660    4.0080   -0.4550 h1        1 MOL      0.083684
     70 H30        -5.7070    3.9350   -3.0120 hc        1 MOL      0.028095
     71 H31        -3.9520    4.0870   -2.7300 hc        1 MOL      0.028095
     72 H32        -3.1520    6.3120   -2.0120 hn        1 MOL      0.378394
     73 H33        -4.1940    7.6310   -2.4680 hn        1 MOL      0.378394
     74 N8         -6.2700    1.5900   -1.8150 n         1 MOL     -0.220789
     75 C23        -6.7980    0.2370   -1.7790 c3        1 MOL     -0.209810
     76 C24        -6.3100   -0.7360   -0.6620 c         1 MOL      0.602811
     77 O12        -6.5850   -0.5180    0.5300 o         1 MOL     -0.504270
     78 H34        -6.9250    2.2450   -2.2100 hn        1 MOL      0.273097
     79 H35        -6.5760   -0.2810   -2.7130 h1        1 MOL      0.089223
     80 H36        -7.8680    0.3110   -1.5760 h1        1 MOL      0.089223
     81 N9         -5.7500   -1.8890   -1.0290 n         1 MOL     -0.546044
     82 C25        -5.3950   -2.7910    0.0120 c3        1 MOL      0.163554
     83 C26        -4.2050   -2.2390    0.8610 c         1 MOL      0.510606
     84 O13        -3.5800   -1.2840    0.4670 o         1 MOL     -0.455218
     85 C27        -4.9330   -4.1250   -0.6880 c3        1 MOL     -0.217603
     86 C28        -5.8960   -4.7720   -1.6430 ca        1 MOL      0.061248
     87 C29        -5.5600   -4.9600   -2.9720 ca        1 MOL     -0.113479
     88 C30        -7.0990   -5.2770   -1.1980 ca        1 MOL     -0.113479
     89 C31        -6.3860   -5.6710   -3.7920 ca        1 MOL     -0.272517
     90 C32        -7.9690   -5.9890   -2.0320 ca        1 MOL     -0.272517
     91 C33        -7.5950   -6.2260   -3.3660 ca        1 MOL      0.354210
     92 O14        -8.3840   -6.8610   -4.3160 oh        1 MOL     -0.511669
     93 H37        -5.5000   -2.1570   -1.9710 hn        1 MOL      0.326420
     94 H38        -6.2230   -3.0270    0.6810 h1        1 MOL      0.053084
     95 H39        -4.7750   -4.8560    0.1080 hc        1 MOL      0.053158
     96 H40        -4.0270   -3.8390   -1.2310 hc        1 MOL      0.053158
     97 H41        -4.6290   -4.5310   -3.3180 ha        1 MOL      0.114585
     98 H42        -7.3410   -5.2330   -0.1470 ha        1 MOL      0.114585
     99 H43        -6.2090   -5.7830   -4.8570 ha        1 MOL      0.152863
    100 H44        -8.8940   -6.3520   -1.6080 ha        1 MOL      0.152863
    101 H45        -9.2180   -7.2320   -4.0040 ho        1 MOL      0.391903
    102 N10        -3.8950   -2.8450    1.9470 n         1 MOL     -0.642166
    103 C34        -2.9280   -2.4130    3.0010 c3        1 MOL      0.048361
    104 C35        -1.4980   -2.1510    2.5760 c         1 MOL      0.648872
    105 O15        -1.1610   -1.3770    1.6620 o         1 MOL     -0.532987
    106 C36        -3.5590   -1.2610    3.9140 c3        1 MOL      0.272960
    107 C37        -2.9050   -1.1570    5.2850 c3        1 MOL     -0.196389
    108 C38        -5.0950   -1.3810    4.1440 c3        1 MOL     -0.115714
    109 C39        -2.9430   -2.3360    6.2520 c3        1 MOL     -0.129538
    110 H46        -4.5230   -3.6160    2.1320 hn        1 MOL      0.329743
    111 H47        -2.9290   -3.2200    3.7360 h1        1 MOL      0.052629
    112 H48        -3.3330   -0.2920    3.4550 hc        1 MOL     -0.019607
    113 H49        -3.4440   -0.3140    5.7260 hc        1 MOL      0.075946
    114 H50        -1.8640   -0.8490    5.2350 hc        1 MOL      0.075946
    115 H51        -5.4850   -0.6410    4.8530 hc        1 MOL      0.038561
    116 H52        -5.7340   -1.2320    3.2770 hc        1 MOL      0.038561
    117 H53        -5.3870   -2.3450    4.5370 hc        1 MOL      0.038561
    118 H54        -2.4260   -3.1500    5.7470 hc        1 MOL      0.029586
    119 H55        -2.4240   -2.0670    7.1720 hc        1 MOL      0.029586
    120 H56        -4.0070   -2.5620    6.3370 hc        1 MOL      0.029586
    121 N11        -0.5880   -2.7650    3.2240 n         1 MOL     -0.627536
    122 C40         0.7590   -2.2180    3.4640 c3        1 MOL      0.158418
    123 C41         1.7490   -2.1870    2.3250 c         1 MOL      0.212909
    124 O16         2.8890   -1.6930    2.5380 o         1 MOL     -0.478870
    125 C42         1.4030   -2.9950    4.6160 c3        1 MOL      0.085844
    126 O17         0.3810   -3.3220    5.5130 oh        1 MOL     -0.564518
    127 H57        -0.9120   -3.3290    4.0010 hn        1 MOL      0.291456
    128 H58         0.5520   -1.2210    3.8380 h1        1 MOL      0.150257
    129 H59         2.1310   -2.3820    5.1400 h1        1 MOL      0.084623
    130 H60         1.8480   -3.9330    4.2810 h1        1 MOL      0.084623
    131 H61         0.2750   -4.2670    5.5300 ho        1 MOL      0.385931
    132 N12         1.3410   -2.6350    1.1410 n         1 MOL     -0.174373
    133 C43         2.1320   -2.7350   -0.0610 c3        1 MOL      0.085040
    134 C44         2.0470   -1.3600   -0.8960 c         1 MOL      0.679778
    135 O18         0.9350   -0.7990   -0.8260 o         1 MOL     -0.601813
    136 C45         1.8400   -3.9580   -0.9840 c3        1 MOL     -0.277017
    137 H62         0.3630   -2.8970    1.0830 hn        1 MOL      0.207125
    138 H63         3.1740   -2.9060    0.2200 h1        1 MOL      0.086013
    139 H64         2.6110   -4.1430   -1.7410 hc        1 MOL      0.073813
    140 H65         1.9310   -4.7880   -0.2800 hc        1 MOL      0.073813
    141 H66         0.8370   -3.8670   -1.3880 hc        1 MOL      0.073813
    142 N13         3.0630   -0.8660   -1.6580 n         1 MOL     -0.717740
    143 C46         4.4040   -1.3660   -1.7500 c3        1 MOL      0.226243
    144 C47         4.6590   -2.6210   -2.6530 c         1 MOL      0.593663
    145 O19         3.9850   -2.8640   -3.6680 o         1 MOL     -0.583548
    146 C48         5.2340   -0.2490   -2.4130 c3        1 MOL     -0.200625
    147 H67         2.8190   -0.1210   -2.3020 hn        1 MOL      0.410967
    148 H68         4.7710   -1.5750   -0.7340 h1        1 MOL      0.043851
    149 H69         5.2700    0.5850   -1.7190 hc        1 MOL      0.077076
    150 H70         6.2640   -0.5760   -2.5690 hc        1 MOL      0.077076
    151 H71         4.8240    0.0560   -3.3760 hc        1 MOL      0.077076
    152 N14         5.7210   -3.3710   -2.5390 n         1 MOL     -0.480229
    153 C49         6.8660   -3.2930   -1.5350 c3        1 MOL     -0.348337
    154 C50         6.7760   -4.3130   -0.3780 c         1 MOL      0.639808
    155 O20         6.2020   -4.0080    0.7240 o         1 MOL     -0.507907
    156 C51         8.2050   -3.3030   -2.3590 c3        1 MOL      0.271147
    157 C52         9.4210   -2.6410   -1.5630 c3        1 MOL     -0.212673
    158 C53         9.4980   -1.1700   -1.8650 c         1 MOL      0.741316
    159 O21        10.2050   -0.7360   -2.7830 o         1 MOL     -0.720036
    160 O22         8.6910   -0.3900   -1.3250 o         1 MOL     -0.720036
    161 H72         5.8300   -4.1180   -3.2130 hn        1 MOL      0.313837
    162 H73         6.8130   -2.3000   -1.0860 h1        1 MOL      0.145306
    163 H74         8.1290   -2.8740   -3.3580 hc        1 MOL     -0.027938
    164 H75         8.4890   -4.3440   -2.5140 hc        1 MOL     -0.027938
    165 H76        10.3770   -2.9920   -1.9460 hc        1 MOL      0.030315
    166 H77         9.4130   -2.7670   -0.4840 hc        1 MOL      0.030315
    167 N15         7.2670   -5.5900   -0.5950 n         1 MOL     -0.428035
    168 C54         7.2050   -6.5670    0.5020 c3        1 MOL     -0.252902
    169 H78         6.6790   -6.1280    1.3500 h1        1 MOL      0.121124
    170 H79         6.6720   -7.4570    0.1670 h1        1 MOL      0.121124
    171 H80         8.2160   -6.8400    0.8040 h1        1 MOL      0.121124
    172 H81         7.6340   -5.8940   -1.4850 hn        1 MOL      0.331319
    173 Ca1        -1.6130   -0.0800   -0.6400 Ca        1 MOL      1.725180
    174 O23        -3.3230   -0.8360   -2.7230 oh        1 MOL     -0.836841
    175 H82        -3.5030   -0.1480   -3.3580 ho        1 MOL      0.414033
    176 H83        -2.8850   -1.5220   -3.2290 ho        1 MOL      0.414033
    177 O24        -1.5430   -2.9030   -1.0760 oh        1 MOL     -0.836841
    178 H84        -1.3680   -3.6950   -0.5670 ho        1 MOL      0.414033
    179 H85        -1.9280   -3.2050   -1.8920 ho        1 MOL      0.414033
@<TRIPOS>BOND
     1    1    2 1   
     2    1    4 1   
     3    1    5 1   
     4    1    6 1   
     5    2    3 2   
     6    2    7 1   
     7    7    8 1   
     8    7   15 1   
     9    8    9 1   
    10    8   11 1   
    11    8   16 1   
    12    9   10 2   
    13    9   19 1   
    14   11   12 1   
    15   11   17 1   
    16   11   18 1   
    17   12   13 1   
    18   12   14 1   
    19   19   20 1   
    20   19   28 1   
    21   20   21 1   
    22   20   23 1   
    23   20   29 1   
    24   21   22 2   
    25   21   41 1   
    26   23   24 1   
    27   23   30 1   
    28   23   31 1   
    29   24   25 1   
    30   24   32 1   
    31   24   33 1   
    32   25   26 1   
    33   25   34 1   
    34   25   35 1   
    35   26   27 1   
    36   26   36 1   
    37   26   37 1   
    38   27   38 1   
    39   27   39 1   
    40   27   40 1   
    41   41   42 1   
    42   41   49 1   
    43   42   43 1   
    44   42   45 1   
    45   42   50 1   
    46   43   44 2   
    47   43   53 1   
    48   45   46 1   
    49   45   51 1   
    50   45   52 1   
    51   46   47 1   
    52   46   48 1   
    53   53   54 1   
    54   53   57 1   
    55   54   55 1   
    56   54   58 1   
    57   54   59 1   
    58   55   56 2   
    59   55   60 1   
    60   60   61 1   
    61   60   68 1   
    62   61   62 1   
    63   61   64 1   
    64   61   69 1   
    65   62   63 2   
    66   62   74 1   
    67   64   65 1   
    68   64   70 1   
    69   64   71 1   
    70   65   66 1   
    71   65   67 2   
    72   66   72 1   
    73   66   73 1   
    74   74   75 1   
    75   74   78 1   
    76   75   76 1   
    77   75   79 1   
    78   75   80 1   
    79   76   77 2   
    80   76   81 1   
    81   81   82 1   
    82   81   93 1   
    83   82   83 1   
    84   82   85 1   
    85   82   94 1   
    86   83   84 2   
    87   83  102 1   
    88   85   86 1   
    89   85   95 1   
    90   85   96 1   
    91   86   87 ar  
    92   86   88 ar  
    93   87   89 ar  
    94   87   97 1   
    95   88   90 ar  
    96   88   98 1   
    97   89   91 ar  
    98   89   99 1   
    99   90   91 ar  
   100   90  100 1   
   101   91   92 1   
   102   92  101 1   
   103  102  103 1   
   104  102  110 1   
   105  103  104 1   
   106  103  106 1   
   107  103  111 1   
   108  104  105 2   
   109  104  121 1   
   110  106  107 1   
   111  106  108 1   
   112  106  112 1   
   113  107  109 1   
   114  107  113 1   
   115  107  114 1   
   116  108  115 1   
   117  108  116 1   
   118  108  117 1   
   119  109  118 1   
   120  109  119 1   
   121  109  120 1   
   122  121  122 1   
   123  121  127 1   
   124  122  123 1   
   125  122  125 1   
   126  122  128 1   
   127  123  124 2   
   128  123  132 1   
   129  125  126 1   
   130  125  129 1   
   131  125  130 1   
   132  126  131 1   
   133  132  133 1   
   134  132  137 1   
   135  133  134 1   
   136  133  136 1   
   137  133  138 1   
   138  134  135 2   
   139  134  142 1   
   140  136  139 1   
   141  136  140 1   
   142  136  141 1   
   143  142  143 1   
   144  142  147 1   
   145  143  144 1   
   146  143  146 1   
   147  143  148 1   
   148  144  145 2   
   149  144  152 1   
   150  146  149 1   
   151  146  150 1   
   152  146  151 1   
   153  152  153 1   
   154  152  161 1   
   155  153  154 1   
   156  153  156 1   
   157  153  162 1   
   158  154  155 2   
   159  154  167 1   
   160  156  157 1   
   161  156  163 1   
   162  156  164 1   
   163  157  158 1   
   164  157  165 1   
   165  157  166 1   
   166  158  159 1   
   167  158  160 1   
   168  167  168 1   
   169  167  172 1   
   170  168  169 1   
   171  168  170 1   
   172  168  171 1   
   173  174  175 1   
   174  174  176 1   
   175  177  178 1   
   176  177  179 1   
@<TRIPOS>SUBSTRUCTURE
     1 MOL         1 TEMP              0 ****  ****    0 ROOT
