@<TRIPOS>MOLECULE
MOL
  192   187     1     0     0
SMALL
resp


@<TRIPOS>ATOM
      1 C1         -4.8770   -4.3600    4.9030 c3        1 MOL     -0.289704
      2 C2         -4.6690   -3.4850    3.5800 c         1 MOL      0.721509
      3 O1         -4.3660   -3.9560    2.4960 o         1 MOL     -0.567530
      4 H1         -5.3700   -3.7560    5.6640 hc        1 MOL      0.072412
      5 H2         -5.4950   -5.2270    4.6720 hc        1 MOL      0.072412
      6 H3         -3.9080   -4.6930    5.2750 hc        1 MOL      0.072412
      7 N1         -4.9380   -2.1580    3.7600 n         1 MOL     -0.595392
      8 C3         -4.8190   -1.2390    2.6050 c3        1 MOL      0.189096
      9 C4         -3.3700   -0.7470    2.3410 c         1 MOL     -0.151018
     10 O2         -3.1740   -0.0310    1.3710 o         1 MOL     -0.114212
     11 C5         -5.6510    0.0240    2.8470 c3        1 MOL     -0.157619
     12 C6         -5.6720    0.6410    4.2290 c         1 MOL      0.767062
     13 O3         -5.3570    1.8250    4.3510 o         1 MOL     -0.710800
     14 O4         -6.1020   -0.0200    5.1430 o         1 MOL     -0.710800
     15 H4         -5.1890   -1.8470    4.6830 hn        1 MOL      0.333124
     16 H5         -5.2500   -1.6710    1.7090 h1        1 MOL      0.095942
     17 H6         -6.6590   -0.2950    2.5680 hc        1 MOL      0.057927
     18 H7         -5.6070    0.7980    2.0840 hc        1 MOL      0.057927
     19 N2         -2.2980   -1.1690    3.0560 n         1 MOL     -0.071280
     20 C7         -0.8500   -0.8850    2.8060 c3        1 MOL      0.112024
     21 C8         -0.3080   -2.1750    2.1390 c         1 MOL      0.301509
     22 O5         -0.7690   -3.2630    2.5940 o         1 MOL     -0.506272
     23 C9         -0.1450   -0.6680    4.1510 c3        1 MOL      0.003418
     24 C10        -0.3310    0.6850    4.7430 c3        1 MOL     -0.170260
     25 C11        -1.7970    0.9900    5.2430 c3        1 MOL     -0.067308
     26 C12        -1.9400    2.3860    5.9580 c3        1 MOL      0.187629
     27 N3         -3.3370    2.7600    5.9700 n4        1 MOL     -0.371854
     28 H8         -2.4470   -1.9210    3.7150 hn        1 MOL      0.199931
     29 H9         -0.8240   -0.0100    2.1550 h1        1 MOL      0.157612
     30 H10         0.8970   -0.8850    3.9100 hc        1 MOL      0.044032
     31 H11        -0.4110   -1.4900    4.8190 hc        1 MOL      0.044032
     32 H12        -0.0090    1.4240    4.0090 hc        1 MOL      0.063079
     33 H13         0.4330    0.8310    5.5070 hc        1 MOL      0.063079
     34 H14        -2.0360    0.1860    5.9470 hc        1 MOL      0.024805
     35 H15        -2.5600    0.9730    4.4610 hc        1 MOL      0.024805
     36 H16        -1.2980    3.0600    5.4030 hx        1 MOL      0.016944
     37 H17        -1.6260    2.4560    6.9980 hx        1 MOL      0.016944
     38 H18        -3.3410    3.7710    6.0470 hn        1 MOL      0.306734
     39 H19        -3.8380    2.5070    5.1390 hn        1 MOL      0.306734
     40 H20        -3.8740    2.3650    6.7270 hn        1 MOL      0.306734
     41 N4          0.4980   -2.2200    1.0900 n         1 MOL     -0.203519
     42 C13         1.1860   -1.1510    0.3550 c3        1 MOL      0.017552
     43 C14         2.0020   -0.0750    1.1410 c         1 MOL      0.288872
     44 O6          1.5710    1.0690    1.2840 o         1 MOL     -0.508617
     45 C15         0.2300   -0.5810   -0.7120 c3        1 MOL     -0.332112
     46 C16        -0.5210   -1.5750   -1.6500 c         1 MOL      0.536129
     47 O7         -0.2790   -2.7880   -1.6710 o         1 MOL     -0.694914
     48 O8         -1.2200   -1.1720   -2.5660 o         1 MOL     -0.694914
     49 H21         0.7300   -3.1760    0.8610 hn        1 MOL      0.245676
     50 H22         1.9270   -1.6020   -0.3060 h1        1 MOL      0.024377
     51 H23         0.8620    0.0620   -1.3210 hc        1 MOL      0.169511
     52 H24        -0.5290   -0.0070   -0.1790 hc        1 MOL      0.169511
     53 N5          3.1540   -0.3840    1.6750 n         1 MOL     -0.373978
     54 C17         3.9480   -1.6030    1.4550 c3        1 MOL     -0.000655
     55 C18         5.0450   -1.7080    2.5300 c         1 MOL      0.589193
     56 O9          5.0930   -0.9470    3.4070 o         1 MOL     -0.511854
     57 H25         3.5560    0.3700    2.2260 hn        1 MOL      0.340358
     58 H26         4.4340   -1.6490    0.4780 h1        1 MOL      0.028303
     59 H27         3.4350   -2.5640    1.4950 h1        1 MOL      0.028303
     60 N6          5.8780   -2.7580    2.4870 n         1 MOL     -0.471016
     61 C19         6.1740   -3.7010    1.4650 c3        1 MOL     -0.031177
     62 C20         7.0570   -2.9480    0.3530 c         1 MOL      0.629309
     63 O10         7.7110   -1.9150    0.6510 o         1 MOL     -0.470706
     64 C21         6.9290   -4.9350    1.9760 c3        1 MOL     -0.229481
     65 C22         8.1850   -4.6900    2.8370 c         1 MOL      0.711144
     66 O11         8.1710   -4.1490    3.9480 o         1 MOL     -0.644178
     67 O12         9.2360   -5.0200    2.2210 o         1 MOL     -0.644178
     68 H28         6.6220   -2.7220    3.1730 hn        1 MOL      0.306528
     69 H29         5.2440   -4.0650    1.0400 h1        1 MOL      0.057236
     70 H30         7.2510   -5.6060    1.1700 hc        1 MOL      0.042219
     71 H31         6.2250   -5.5220    2.5550 hc        1 MOL      0.042219
     72 N7          6.9680   -3.2940   -0.9310 n         1 MOL     -0.442284
     73 C23         7.5780   -2.6890   -2.1360 c3        1 MOL     -0.237355
     74 C24         6.9940   -1.3270   -2.4450 c         1 MOL      0.433669
     75 O13         7.5860   -0.5770   -3.2500 o         1 MOL     -0.533867
     76 H32         6.2060   -3.9230   -1.1290 hn        1 MOL      0.236555
     77 H33         7.3010   -3.3380   -2.9590 h1        1 MOL      0.166244
     78 H34         8.6650   -2.7090   -2.1130 h1        1 MOL      0.166244
     79 N8          5.8060   -1.0360   -1.9700 n         1 MOL     -0.239544
     80 C25         5.0680    0.1910   -2.0920 c3        1 MOL      0.191649
     81 C26         5.5310    1.2660   -1.0490 c         1 MOL      0.502947
     82 O14         5.9720    0.9780    0.0750 o         1 MOL     -0.493099
     83 C27         3.5690    0.0140   -2.2430 c3        1 MOL      0.198922
     84 C28         3.2450   -0.9440   -3.3350 c3        1 MOL     -0.775548
     85 O15         3.0290    1.2240   -2.6940 oh        1 MOL     -0.566377
     86 H35         5.3220   -1.7820   -1.4760 hn        1 MOL      0.185842
     87 H36         5.4610    0.6330   -3.0090 h1        1 MOL      0.042414
     88 H37         3.0680   -0.2450   -1.3120 h1        1 MOL      0.197877
     89 H38         2.0830    1.1240   -2.8280 ho        1 MOL      0.393665
     90 H39         3.3300   -1.9930   -3.0380 hc        1 MOL      0.194232
     91 H40         2.2400   -0.7260   -3.7000 hc        1 MOL      0.194232
     92 H41         3.9250   -0.7370   -4.1590 hc        1 MOL      0.194232
     93 N9          5.4410    2.5780   -1.4240 n         1 MOL     -0.552770
     94 C29         5.6490    3.7690   -0.5530 c3        1 MOL      0.262740
     95 C30         4.3340    4.0770    0.1470 c         1 MOL      0.309853
     96 O16         4.3080    4.7130    1.2180 o         1 MOL     -0.530066
     97 C31         6.2760    4.9130   -1.3730 c3        1 MOL      0.035124
     98 C32         7.7180    4.4750   -1.8650 c3        1 MOL     -0.025130
     99 C33         6.5570    6.1820   -0.4600 c3        1 MOL     -0.317281
    100 C34         8.5900    3.6600   -0.9150 c3        1 MOL     -0.181651
    101 H42         5.1590    2.7250   -2.3790 hn        1 MOL      0.281266
    102 H43         6.3410    3.5720    0.2780 h1        1 MOL      0.079338
    103 H44         5.6760    5.1960   -2.2360 hc        1 MOL      0.018020
    104 H45         8.3440    5.3340   -2.1320 hc        1 MOL      0.015127
    105 H46         7.6020    3.9320   -2.7980 hc        1 MOL      0.015127
    106 H47         7.2080    6.9130   -0.9460 hc        1 MOL      0.085017
    107 H48         5.5630    6.6080   -0.2870 hc        1 MOL      0.085017
    108 H49         6.9170    5.8600    0.5100 hc        1 MOL      0.085017
    109 H50         8.3290    3.8110    0.1240 hc        1 MOL      0.064827
    110 H51         8.4930    2.6120   -1.1960 hc        1 MOL      0.064827
    111 H52         9.6530    3.8750   -1.0250 hc        1 MOL      0.064827
    112 N10         3.2150    3.7080   -0.4140 n         1 MOL      0.001912
    113 C35         1.9030    4.3770   -0.1210 c3        1 MOL     -0.121247
    114 C36         0.6570    3.4980   -0.3320 c         1 MOL      0.509392
    115 O17         0.5830    2.7480   -1.2620 o         1 MOL     -0.451305
    116 C37         1.6760    5.6710   -0.8760 c3        1 MOL      0.348673
    117 C38         1.6750    5.5000   -2.3950 c3        1 MOL     -0.255828
    118 O18         2.5950    6.7790   -0.6740 oh        1 MOL     -0.551987
    119 H53         3.2540    3.0210   -1.1470 hn        1 MOL      0.040213
    120 H54         1.9910    4.6380    0.9360 h1        1 MOL      0.061932
    121 H55         0.6630    6.0100   -0.6320 h1        1 MOL     -0.025092
    122 H56         2.0780    7.3840   -0.1340 ho        1 MOL      0.353787
    123 H57         0.8590    4.8980   -2.7720 hc        1 MOL      0.065881
    124 H58         1.6210    6.4590   -2.9290 hc        1 MOL      0.065881
    125 H59         2.6130    5.0300   -2.6700 hc        1 MOL      0.065881
    126 N11        -0.3390    3.6850    0.5380 n         1 MOL     -0.438295
    127 C39        -1.5910    2.8720    0.7020 c3        1 MOL      0.000761
    128 C40        -2.5980    2.9650   -0.4960 c         1 MOL      0.475173
    129 O19        -2.5870    3.9060   -1.3250 o         1 MOL     -0.528484
    130 C41        -2.3340    3.2790    1.9870 c3        1 MOL      0.068135
    131 C42        -3.1010    4.5460    1.8890 c3        1 MOL     -0.396046
    132 O20        -1.5060    3.4980    3.0920 oh        1 MOL     -0.465118
    133 H60        -0.2290    4.4550    1.1870 hn        1 MOL      0.273571
    134 H61        -1.3160    1.8210    0.7170 h1        1 MOL      0.009199
    135 H62        -3.0920    2.5540    2.3010 h1        1 MOL      0.082342
    136 H63        -0.7930    4.0710    2.8130 ho        1 MOL      0.364563
    137 H64        -2.5030    5.4120    1.6010 hc        1 MOL      0.110400
    138 H65        -3.9040    4.4150    1.1640 hc        1 MOL      0.110400
    139 H66        -3.5530    4.7970    2.8510 hc        1 MOL      0.110400
    140 N12        -3.5100    1.9920   -0.5840 n         1 MOL     -0.089090
    141 C43        -4.5160    1.8510   -1.6390 c3        1 MOL     -0.403778
    142 C44        -4.7460    0.4480   -2.1660 c         1 MOL      0.518713
    143 O21        -5.3080    0.2210   -3.2360 o         1 MOL     -0.585407
    144 C45        -5.7940    2.5510   -1.1480 c3        1 MOL     -0.291844
    145 C46        -6.8720    2.7400   -2.3030 c3        1 MOL      0.380658
    146 C47        -8.1110    3.4980   -1.8770 c3        1 MOL     -0.058011
    147 C48        -9.1660    3.9590   -2.9690 c3        1 MOL     -0.120348
    148 N13        -8.6030    5.0570   -3.7680 n4        1 MOL     -0.288729
    149 H67        -3.3990    1.2390    0.0780 hn        1 MOL      0.155436
    150 H68        -4.2330    2.3370   -2.5720 h1        1 MOL      0.201145
    151 H69        -5.5470    3.4740   -0.6400 hc        1 MOL      0.094679
    152 H70        -6.2820    2.0530   -0.3080 hc        1 MOL      0.094679
    153 H71        -7.1850    1.7800   -2.7090 hc        1 MOL     -0.055193
    154 H72        -6.4000    3.1690   -3.1790 hc        1 MOL     -0.055193
    155 H73        -7.6450    4.4060   -1.5050 hc        1 MOL      0.031000
    156 H74        -8.5780    2.8840   -1.1150 hc        1 MOL      0.031000
    157 H75       -10.1290    4.2620   -2.5450 hx        1 MOL      0.132516
    158 H76        -9.3570    3.1210   -3.6310 hx        1 MOL      0.132516
    159 H77        -9.2260    5.3820   -4.4950 hn        1 MOL      0.272212
    160 H78        -8.4410    5.9080   -3.2510 hn        1 MOL      0.272212
    161 H79        -7.7100    4.8240   -4.1640 hn        1 MOL      0.272212
    162 N14        -4.3990   -0.6120   -1.4240 n         1 MOL      0.258688
    163 C49        -4.7510   -1.9850   -1.7090 c3        1 MOL     -0.292478
    164 C50        -6.2170   -2.3030   -1.4010 c         1 MOL      0.557758
    165 O22        -6.6830   -1.7650   -0.3770 o         1 MOL     -0.555006
    166 C51        -3.8030   -2.9280   -0.9290 c3        1 MOL      0.228344
    167 C52        -4.0190   -4.3550   -1.1450 c3        1 MOL     -0.735697
    168 C53        -4.1810   -4.8880   -2.5080 c         1 MOL      0.898962
    169 O23        -3.2260   -4.6910   -3.2870 o         1 MOL     -0.808493
    170 O24        -5.3230   -5.2260   -3.0250 o         1 MOL     -0.808493
    171 H80        -3.9170   -0.3980   -0.5540 hn        1 MOL     -0.126385
    172 H81        -4.5910   -2.1970   -2.7630 h1        1 MOL      0.054900
    173 H82        -3.9090   -2.7150    0.1340 hc        1 MOL      0.062439
    174 H83        -2.7470   -2.7140   -1.1100 hc        1 MOL      0.062439
    175 H84        -4.8060   -4.6560   -0.4510 hc        1 MOL      0.185717
    176 H85        -3.0940   -4.8170   -0.7850 hc        1 MOL      0.185717
    177 N15        -6.9580   -3.0930   -2.1590 n         1 MOL     -0.513335
    178 C54        -8.3940   -3.2860   -2.0220 c3        1 MOL      0.023953
    179 H86        -8.8710   -2.3280   -1.8160 h1        1 MOL      0.046574
    180 H87        -8.7950   -3.7000   -2.9470 h1        1 MOL      0.046574
    181 H88        -8.5920   -3.9730   -1.2000 h1        1 MOL      0.046574
    182 H89        -6.4250   -3.7430   -2.7200 hn        1 MOL      0.493387
    183 Ca1        -0.9050   -3.5720   -3.9280 Ca        1 MOL      1.732612
    184 O25         1.5730   -4.2170   -3.7610 oh        1 MOL     -0.841881
    185 H90         2.1520   -3.9770   -4.4860 ho        1 MOL      0.422262
    186 H91         2.0710   -4.8750   -3.2640 ho        1 MOL      0.422262
    187 O26        -3.0050   -2.4020   -5.2650 oh        1 MOL     -0.841881
    188 H92        -3.9500   -2.2460   -5.2500 ho        1 MOL      0.422262
    189 H93        -2.7920   -2.4960   -6.1930 ho        1 MOL      0.422262
    190 O27         0.3840   -1.9760   -5.5530 oh        1 MOL     -0.841881
    191 H94         1.0480   -2.2940   -6.1690 ho        1 MOL      0.422262
    192 H95         0.4070   -1.0280   -5.6470 ho        1 MOL      0.422262
@<TRIPOS>BOND
     1    1    2 1   
     2    1    4 1   
     3    1    5 1   
     4    1    6 1   
     5    2    3 2   
     6    2    7 1   
     7    7    8 1   
     8    7   15 1   
     9    8    9 1   
    10    8   11 1   
    11    8   16 1   
    12    9   10 2   
    13    9   19 1   
    14   11   12 1   
    15   11   17 1   
    16   11   18 1   
    17   12   13 1   
    18   12   14 1   
    19   19   20 1   
    20   19   28 1   
    21   20   21 1   
    22   20   23 1   
    23   20   29 1   
    24   21   22 2   
    25   21   41 1   
    26   23   24 1   
    27   23   30 1   
    28   23   31 1   
    29   24   25 1   
    30   24   32 1   
    31   24   33 1   
    32   25   26 1   
    33   25   34 1   
    34   25   35 1   
    35   26   27 1   
    36   26   36 1   
    37   26   37 1   
    38   27   38 1   
    39   27   39 1   
    40   27   40 1   
    41   41   42 1   
    42   41   49 1   
    43   42   43 1   
    44   42   45 1   
    45   42   50 1   
    46   43   44 2   
    47   43   53 1   
    48   45   46 1   
    49   45   51 1   
    50   45   52 1   
    51   46   47 1   
    52   46   48 1   
    53   53   54 1   
    54   53   57 1   
    55   54   55 1   
    56   54   58 1   
    57   54   59 1   
    58   55   56 2   
    59   55   60 1   
    60   60   61 1   
    61   60   68 1   
    62   61   62 1   
    63   61   64 1   
    64   61   69 1   
    65   62   63 2   
    66   62   72 1   
    67   64   65 1   
    68   64   70 1   
    69   64   71 1   
    70   65   66 1   
    71   65   67 1   
    72   72   73 1   
    73   72   76 1   
    74   73   74 1   
    75   73   77 1   
    76   73   78 1   
    77   74   75 2   
    78   74   79 1   
    79   79   80 1   
    80   79   86 1   
    81   80   81 1   
    82   80   83 1   
    83   80   87 1   
    84   81   82 2   
    85   81   93 1   
    86   83   84 1   
    87   83   85 1   
    88   83   88 1   
    89   84   90 1   
    90   84   91 1   
    91   84   92 1   
    92   85   89 1   
    93   93   94 1   
    94   93  101 1   
    95   94   95 1   
    96   94   97 1   
    97   94  102 1   
    98   95   96 2   
    99   95  112 1   
   100   97   98 1   
   101   97   99 1   
   102   97  103 1   
   103   98  100 1   
   104   98  104 1   
   105   98  105 1   
   106   99  106 1   
   107   99  107 1   
   108   99  108 1   
   109  100  109 1   
   110  100  110 1   
   111  100  111 1   
   112  112  113 1   
   113  112  119 1   
   114  113  114 1   
   115  113  116 1   
   116  113  120 1   
   117  114  115 2   
   118  114  126 1   
   119  116  117 1   
   120  116  118 1   
   121  116  121 1   
   122  117  123 1   
   123  117  124 1   
   124  117  125 1   
   125  118  122 1   
   126  126  127 1   
   127  126  133 1   
   128  127  128 1   
   129  127  130 1   
   130  127  134 1   
   131  128  129 2   
   132  128  140 1   
   133  130  131 1   
   134  130  132 1   
   135  130  135 1   
   136  131  137 1   
   137  131  138 1   
   138  131  139 1   
   139  132  136 1   
   140  140  141 1   
   141  140  149 1   
   142  141  142 1   
   143  141  144 1   
   144  141  150 1   
   145  142  143 2   
   146  142  162 1   
   147  144  145 1   
   148  144  151 1   
   149  144  152 1   
   150  145  146 1   
   151  145  153 1   
   152  145  154 1   
   153  146  147 1   
   154  146  155 1   
   155  146  156 1   
   156  147  148 1   
   157  147  157 1   
   158  147  158 1   
   159  148  159 1   
   160  148  160 1   
   161  148  161 1   
   162  162  163 1   
   163  162  171 1   
   164  163  164 1   
   165  163  166 1   
   166  163  172 1   
   167  164  165 2   
   168  164  177 1   
   169  166  167 1   
   170  166  173 1   
   171  166  174 1   
   172  167  168 1   
   173  167  175 1   
   174  167  176 1   
   175  168  169 1   
   176  168  170 1   
   177  177  178 1   
   178  177  182 1   
   179  178  179 1   
   180  178  180 1   
   181  178  181 1   
   182  184  185 1   
   183  184  186 1   
   184  187  188 1   
   185  187  189 1   
   186  190  191 1   
   187  190  192 1   
@<TRIPOS>SUBSTRUCTURE
     1 MOL         1 TEMP              0 ****  ****    0 ROOT
