@<TRIPOS>MOLECULE
MOL
  189   185     1     0     0
SMALL
resp


@<TRIPOS>ATOM
      1 C1         -4.7700   -4.2070   -3.5530 c3        1 MOL     -0.276846
      2 C2         -5.4500   -3.3950   -2.3880 c         1 MOL      0.692690
      3 O1         -4.7910   -3.0510   -1.4260 o         1 MOL     -0.640321
      4 H1         -5.5410   -4.6570   -4.1790 hc        1 MOL      0.077318
      5 H2         -4.1610   -3.5350   -4.1570 hc        1 MOL      0.077318
      6 H3         -4.1410   -4.9900   -3.1320 hc        1 MOL      0.077318
      7 N1         -6.6900   -2.9100   -2.5040 n         1 MOL     -0.663728
      8 C3         -7.2690   -1.7400   -1.8890 c3        1 MOL      0.204670
      9 C4         -6.1930   -0.6500   -1.7230 c         1 MOL      0.159409
     10 O2         -5.5450   -0.4230   -0.6980 o         1 MOL     -0.283755
     11 C5         -8.1960   -2.1400   -0.6900 c3        1 MOL     -0.019700
     12 C6         -7.6570   -3.2610    0.1820 c         1 MOL      0.768154
     13 O3         -6.7170   -3.0020    0.9700 o         1 MOL     -0.756789
     14 O4         -8.2510   -4.3810    0.1720 o         1 MOL     -0.756789
     15 H4         -7.2730   -3.2780   -3.2350 hn        1 MOL      0.334988
     16 H5         -7.9560   -1.3230   -2.6300 h1        1 MOL      0.030597
     17 H6         -9.1120   -2.5490   -1.1280 hc        1 MOL     -0.009056
     18 H7         -8.3760   -1.2580   -0.0790 hc        1 MOL     -0.009056
     19 N2         -5.8990   -0.0050   -2.8560 n         1 MOL     -0.243490
     20 C7         -5.0260    1.1820   -3.0800 c3        1 MOL     -0.197269
     21 C8         -5.6000    2.4880   -2.4520 c         1 MOL      0.445700
     22 O5         -5.8160    3.4880   -3.1330 o         1 MOL     -0.538261
     23 C9         -3.5690    0.7800   -2.6840 c3        1 MOL      0.427335
     24 C10        -2.5440    1.8930   -2.9840 c3        1 MOL     -0.287066
     25 C11        -3.0690   -0.5770   -3.2710 c3        1 MOL     -0.005208
     26 C12        -2.2660    2.2780   -4.4310 c3        1 MOL     -0.486691
     27 H8         -6.2740   -0.4430   -3.6940 hn        1 MOL      0.239869
     28 H9         -4.8830    1.1850   -4.1600 h1        1 MOL      0.097536
     29 H10        -3.5930    0.5630   -1.6220 hc        1 MOL     -0.273600
     30 H11        -1.5670    1.5680   -2.6310 hc        1 MOL      0.188665
     31 H12        -2.7900    2.8310   -2.4640 hc        1 MOL      0.188665
     32 H13        -3.8930   -1.2860   -3.1710 hc        1 MOL     -0.016217
     33 H14        -2.8340   -0.4220   -4.3220 hc        1 MOL     -0.016217
     34 H15        -2.2450   -0.9870   -2.6980 hc        1 MOL     -0.016217
     35 H16        -3.2250    2.2730   -4.9460 hc        1 MOL      0.116346
     36 H17        -1.8490    3.2910   -4.4730 hc        1 MOL      0.116346
     37 H18        -1.5200    1.6170   -4.8800 hc        1 MOL      0.116346
     38 N3         -5.8530    2.4450   -1.1450 n         1 MOL     -0.155523
     39 C13        -6.4290    3.5320   -0.3050 c3        1 MOL      0.061125
     40 C14        -5.5930    4.8320   -0.1360 c         1 MOL      0.554026
     41 O6         -6.1100    5.8500   -0.6110 o         1 MOL     -0.569385
     42 C15        -7.0450    3.0210    1.0350 c3        1 MOL     -0.404269
     43 C16        -8.0550    1.9430    0.9860 c         1 MOL      0.890541
     44 O7         -8.6940    1.6700   -0.0540 o         1 MOL     -0.759207
     45 O8         -8.2940    1.3000    2.0070 o         1 MOL     -0.759207
     46 H19        -5.8380    1.5080   -0.7690 hn        1 MOL      0.219872
     47 H20        -7.2770    3.8240   -0.9350 h1        1 MOL      0.051435
     48 H21        -7.6730    3.7570    1.5390 hc        1 MOL      0.095246
     49 H22        -6.2580    2.6570    1.7080 hc        1 MOL      0.095246
     50 N4         -4.3650    4.8950    0.4510 n         1 MOL     -0.540155
     51 C17        -3.4420    3.8320    0.8540 c3        1 MOL      0.165170
     52 C18        -2.3130    4.2120    1.8190 c         1 MOL      0.632696
     53 O9         -2.0690    5.4010    1.9100 o         1 MOL     -0.603977
     54 H23        -4.0130    5.8180    0.6710 hn        1 MOL      0.290272
     55 H24        -2.9440    3.4300   -0.0310 h1        1 MOL      0.019607
     56 H25        -4.0580    3.0510    1.3000 h1        1 MOL      0.019607
     57 N5         -1.7890    3.3030    2.6280 n         1 MOL     -0.595705
     58 C19        -2.1630    1.9190    2.9170 c3        1 MOL      0.442538
     59 C20        -2.3450    0.9680    1.6890 c         1 MOL      0.221811
     60 O10        -3.4730    0.4280    1.5280 o         1 MOL     -0.547530
     61 C21        -3.4180    1.8570    3.8690 c3        1 MOL     -0.437282
     62 C22        -3.5810    0.5530    4.7210 c         1 MOL      0.721199
     63 O11        -4.7630    0.3030    5.0920 o         1 MOL     -0.682630
     64 O12        -2.6370   -0.2470    4.9470 o         1 MOL     -0.682630
     65 H26        -1.1120    3.7420    3.2390 hn        1 MOL      0.280805
     66 H27        -1.3250    1.4640    3.4370 h1        1 MOL     -0.007428
     67 H28        -4.2830    2.0070    3.2180 hc        1 MOL      0.098982
     68 H29        -3.3680    2.7000    4.5540 hc        1 MOL      0.098982
     69 N6         -1.3210    0.7420    0.8400 n         1 MOL     -0.220721
     70 C23         0.0550    1.2830    0.9680 c3        1 MOL     -0.166822
     71 C24         0.3800    2.5790    0.2230 c         1 MOL      0.422840
     72 O13        -0.4320    3.0740   -0.5130 o         1 MOL     -0.560950
     73 H30        -1.5780    0.4510   -0.0910 hn        1 MOL      0.306436
     74 H31         0.7760    0.5020    0.7050 h1        1 MOL      0.096189
     75 H32         0.3380    1.3420    2.0210 h1        1 MOL      0.096189
     76 N7          1.6100    3.0260    0.2840 n         1 MOL     -0.271602
     77 C25         2.1240    4.3160   -0.3010 c3        1 MOL      0.097156
     78 C26         3.0070    4.2280   -1.5430 c         1 MOL      0.314488
     79 O14         3.3910    5.2120   -2.1310 o         1 MOL     -0.454117
     80 C27         2.8190    5.0420    0.8390 c3        1 MOL      0.104097
     81 C28         1.8520    5.4230    1.9330 c3        1 MOL     -0.280045
     82 C29         2.5690    6.1760    3.0310 c         1 MOL      0.639153
     83 N8          2.7880    5.6010    4.1840 n         1 MOL     -0.754967
     84 O15         3.0980    7.2900    2.9600 o         1 MOL     -0.580604
     85 H33         2.2750    2.4850    0.8120 hn        1 MOL      0.221272
     86 H34         1.2580    4.8900   -0.6290 h1        1 MOL      0.128686
     87 H35         3.2760    5.9640    0.4650 hc        1 MOL     -0.013058
     88 H36         3.5270    4.2830    1.1690 hc        1 MOL     -0.013058
     89 H37         1.3590    4.5080    2.2710 hc        1 MOL      0.093467
     90 H38         1.1400    6.1510    1.5520 hc        1 MOL      0.093467
     91 H39         2.5700    4.6230    4.2510 hn        1 MOL      0.357594
     92 H40         3.4000    6.1480    4.7850 hn        1 MOL      0.357594
     93 N9          3.3090    2.9730   -1.8820 n         1 MOL     -0.168307
     94 C30         3.8610    2.6230   -3.2050 c3        1 MOL     -0.260150
     95 C31         5.0710    1.6860   -3.1550 c         1 MOL      0.634033
     96 O16         5.5120    1.2180   -4.2670 o         1 MOL     -0.572271
     97 C32         2.8300    1.9180   -4.1290 c3        1 MOL      0.216132
     98 C33         1.6660    2.8880   -4.3600 c3        1 MOL     -0.238088
     99 C34         2.2700    0.5560   -3.7090 c3        1 MOL     -0.238088
    100 H41         3.0960    2.1770   -1.3030 hn        1 MOL      0.168062
    101 H42         4.2860    3.5100   -3.6850 h1        1 MOL      0.157995
    102 H43         3.2640    1.6700   -5.0970 hc        1 MOL      0.011405
    103 H44         1.0800    2.3900   -5.1280 hc        1 MOL      0.062454
    104 H45         1.1610    3.1540   -3.4290 hc        1 MOL      0.062454
    105 H46         2.0270    3.8630   -4.6810 hc        1 MOL      0.062454
    106 H47         3.0640   -0.1660   -3.5110 hc        1 MOL      0.062454
    107 H48         1.6840    0.6540   -2.7920 hc        1 MOL      0.062454
    108 H49         1.6720    0.2620   -4.5660 hc        1 MOL      0.062454
    109 N10         5.6510    1.4040   -1.9780 n         1 MOL     -0.504374
    110 C35         6.8740    0.5500   -1.9660 c3        1 MOL     -0.040917
    111 C36         6.8490   -0.6010   -0.9020 c         1 MOL      0.720048
    112 O17         7.8080   -1.3830   -0.9840 o         1 MOL     -0.578933
    113 C37         8.0970    1.4580   -1.6750 c3        1 MOL     -0.327619
    114 C38         8.3030    2.6000   -2.6890 c         1 MOL      0.733218
    115 N11         8.8060    2.3600   -3.8800 n         1 MOL     -0.838216
    116 O18         8.2120    3.7520   -2.2920 o         1 MOL     -0.572045
    117 H50         5.2080    1.7570   -1.1460 hn        1 MOL      0.283497
    118 H51         6.9480    0.0290   -2.9190 h1        1 MOL      0.111806
    119 H52         8.9980    0.8620   -1.5220 hc        1 MOL      0.121139
    120 H53         8.0230    1.9220   -0.6980 hc        1 MOL      0.121139
    121 H54         8.7010    1.4440   -4.3060 hn        1 MOL      0.377046
    122 H55         9.1990    3.1250   -4.4040 hn        1 MOL      0.377046
    123 N12         5.8200   -0.8070   -0.0480 n         1 MOL     -0.609338
    124 C39         5.7200   -1.9470    0.8610 c3        1 MOL      0.222339
    125 C40         4.3600   -2.6840    0.8810 c         1 MOL      0.524921
    126 O19         3.3920   -2.1280    0.3960 o         1 MOL     -0.501514
    127 C41         6.1830   -1.6640    2.3270 c3        1 MOL      0.068531
    128 C42         7.5960   -1.0480    2.3340 ca        1 MOL     -0.082529
    129 C43         8.6990   -1.8080    1.9920 ca        1 MOL     -0.141053
    130 C44         7.7740    0.3470    2.6690 ca        1 MOL     -0.141053
    131 C45        10.0040   -1.2650    1.8570 ca        1 MOL     -0.170952
    132 C46         9.0480    0.9320    2.4440 ca        1 MOL     -0.170952
    133 C47        10.1680    0.1020    2.1230 ca        1 MOL      0.231063
    134 O20        11.3730    0.7480    2.0200 oh        1 MOL     -0.480513
    135 H56         5.0570   -0.1450   -0.1130 hn        1 MOL      0.293310
    136 H57         6.4750   -2.6590    0.5020 h1        1 MOL      0.001473
    137 H58         6.1940   -2.6250    2.8290 hc        1 MOL      0.020775
    138 H59         5.3960   -1.1000    2.8370 hc        1 MOL      0.020775
    139 H60         8.5910   -2.8630    1.8060 ha        1 MOL      0.127682
    140 H61         6.9140    0.9400    2.9220 ha        1 MOL      0.127682
    141 H62        10.8920   -1.8900    1.8020 ha        1 MOL      0.114180
    142 H63         9.1850    2.0060    2.4420 ha        1 MOL      0.114180
    143 H64        12.0300    0.1450    1.6670 ho        1 MOL      0.357511
    144 N13         4.4340   -3.9290    1.3690 n         1 MOL     -0.654496
    145 C48         3.3580   -4.8300    1.4750 c3        1 MOL      0.426569
    146 C49         2.4810   -5.1970    0.2220 c         1 MOL      0.058795
    147 O21         1.8080   -6.2370    0.4010 o         1 MOL     -0.452350
    148 C50         2.5130   -4.4860    2.6340 c3        1 MOL     -0.001473
    149 C51         3.2690   -4.4030    4.0340 c3        1 MOL     -0.280760
    150 C52         2.1700   -3.8180    4.9780 c         1 MOL      0.725610
    151 O22         1.0750   -4.4430    5.0830 o         1 MOL     -0.711768
    152 O23         2.4240   -2.8440    5.6810 o         1 MOL     -0.711768
    153 H65         5.3000   -4.3480    1.6600 hn        1 MOL      0.333185
    154 H66         3.8270   -5.7750    1.7600 h1        1 MOL     -0.032148
    155 H67         1.7440   -5.2580    2.6780 hc        1 MOL      0.055329
    156 H68         1.9840   -3.5700    2.3640 hc        1 MOL      0.055329
    157 H69         4.1420   -3.7590    3.9750 hc        1 MOL      0.020468
    158 H70         3.4540   -5.3920    4.4560 hc        1 MOL      0.020468
    159 N14         2.2180   -4.3190   -0.7500 n         1 MOL     -0.205257
    160 C53         1.0680   -4.5680   -1.6290 c3        1 MOL      0.097854
    161 C54         1.5610   -5.3990   -2.8810 c         1 MOL      0.364050
    162 O24         0.7230   -5.8820   -3.6790 o         1 MOL     -0.545213
    163 C55         0.5430   -3.2150   -2.0760 c3        1 MOL     -0.156597
    164 C56         0.1260   -2.0760   -1.0810 c3        1 MOL      0.811925
    165 C57        -1.0790   -2.4850   -0.1250 c         1 MOL      0.213947
    166 O25        -2.1230   -1.8220   -0.2660 o         1 MOL     -0.509916
    167 O26        -0.9880   -3.4700    0.6760 o         1 MOL     -0.509916
    168 H71         2.5840   -3.3860   -0.6870 hn        1 MOL      0.209384
    169 H72         0.2500   -5.1650   -1.2420 h1        1 MOL      0.123857
    170 H73        -0.3920   -3.3770   -2.6020 hc        1 MOL     -0.010058
    171 H74         1.3010   -2.7320   -2.6990 hc        1 MOL     -0.010058
    172 H75        -0.1680   -1.2150   -1.6670 hc        1 MOL     -0.268551
    173 H76         0.9740   -1.8170   -0.4390 hc        1 MOL     -0.268551
    174 N15         2.8650   -5.5240   -3.1200 n         1 MOL     -0.167430
    175 C58         3.4610   -6.3220   -4.2710 c3        1 MOL     -0.201095
    176 H77         2.6620   -6.8260   -4.8140 h1        1 MOL      0.091376
    177 H78         3.9900   -5.6480   -4.9450 h1        1 MOL      0.091376
    178 H79         4.1560   -7.0640   -3.8780 h1        1 MOL      0.091376
    179 H80         3.5070   -4.9600   -2.5790 hn        1 MOL      0.178178
    180 Ca1        -4.3590   -2.0300    0.9220 Ca        1 MOL      1.694275
    181 O27        -4.0790   -4.8190    1.4830 oh        1 MOL     -0.841799
    182 H81        -4.7200   -5.2410    0.9010 ho        1 MOL      0.412457
    183 H82        -3.7360   -5.5260    2.0160 ho        1 MOL      0.412457
    184 O28        -3.3770   -2.2800    3.3250 oh        1 MOL     -0.841799
    185 H83        -2.4520   -2.5190    3.3420 ho        1 MOL      0.412457
    186 H84        -3.4590   -1.5950    3.9920 ho        1 MOL      0.412457
    187 O29        -6.1350   -0.5820    2.4590 oh        1 MOL     -0.841799
    188 H85        -6.9460   -0.1820    2.1440 ho        1 MOL      0.412457
    189 H86        -6.1270   -0.3960    3.4010 ho        1 MOL      0.412457
@<TRIPOS>BOND
     1    1    2 1   
     2    1    4 1   
     3    1    5 1   
     4    1    6 1   
     5    2    3 2   
     6    2    7 1   
     7    7    8 1   
     8    7   15 1   
     9    8    9 1   
    10    8   11 1   
    11    8   16 1   
    12    9   10 2   
    13    9   19 1   
    14   11   12 1   
    15   11   17 1   
    16   11   18 1   
    17   12   13 1   
    18   12   14 1   
    19   19   20 1   
    20   19   27 1   
    21   20   21 1   
    22   20   23 1   
    23   20   28 1   
    24   21   22 2   
    25   21   38 1   
    26   23   24 1   
    27   23   25 1   
    28   23   29 1   
    29   24   26 1   
    30   24   30 1   
    31   24   31 1   
    32   25   32 1   
    33   25   33 1   
    34   25   34 1   
    35   26   35 1   
    36   26   36 1   
    37   26   37 1   
    38   38   39 1   
    39   38   46 1   
    40   39   40 1   
    41   39   42 1   
    42   39   47 1   
    43   40   41 2   
    44   40   50 1   
    45   42   43 1   
    46   42   48 1   
    47   42   49 1   
    48   43   44 1   
    49   43   45 1   
    50   50   51 1   
    51   50   54 1   
    52   51   52 1   
    53   51   55 1   
    54   51   56 1   
    55   52   53 2   
    56   52   57 1   
    57   57   58 1   
    58   57   65 1   
    59   58   59 1   
    60   58   61 1   
    61   58   66 1   
    62   59   60 2   
    63   59   69 1   
    64   61   62 1   
    65   61   67 1   
    66   61   68 1   
    67   62   63 1   
    68   62   64 1   
    69   69   70 1   
    70   69   73 1   
    71   70   71 1   
    72   70   74 1   
    73   70   75 1   
    74   71   72 2   
    75   71   76 1   
    76   76   77 1   
    77   76   85 1   
    78   77   78 1   
    79   77   80 1   
    80   77   86 1   
    81   78   79 2   
    82   78   93 1   
    83   80   81 1   
    84   80   87 1   
    85   80   88 1   
    86   81   82 1   
    87   81   89 1   
    88   81   90 1   
    89   82   83 1   
    90   82   84 2   
    91   83   91 1   
    92   83   92 1   
    93   93   94 1   
    94   93  100 1   
    95   94   95 1   
    96   94   97 1   
    97   94  101 1   
    98   95   96 2   
    99   95  109 1   
   100   97   98 1   
   101   97   99 1   
   102   97  102 1   
   103   98  103 1   
   104   98  104 1   
   105   98  105 1   
   106   99  106 1   
   107   99  107 1   
   108   99  108 1   
   109  109  110 1   
   110  109  117 1   
   111  110  111 1   
   112  110  113 1   
   113  110  118 1   
   114  111  112 2   
   115  111  123 1   
   116  113  114 1   
   117  113  119 1   
   118  113  120 1   
   119  114  115 1   
   120  114  116 2   
   121  115  121 1   
   122  115  122 1   
   123  123  124 1   
   124  123  135 1   
   125  124  125 1   
   126  124  127 1   
   127  124  136 1   
   128  125  126 2   
   129  125  144 1   
   130  127  128 1   
   131  127  137 1   
   132  127  138 1   
   133  128  129 ar  
   134  128  130 ar  
   135  129  131 ar  
   136  129  139 1   
   137  130  132 ar  
   138  130  140 1   
   139  131  133 ar  
   140  131  141 1   
   141  132  133 ar  
   142  132  142 1   
   143  133  134 1   
   144  134  143 1   
   145  144  145 1   
   146  144  153 1   
   147  145  146 1   
   148  145  148 1   
   149  145  154 1   
   150  146  147 2   
   151  146  159 1   
   152  148  149 1   
   153  148  155 1   
   154  148  156 1   
   155  149  150 1   
   156  149  157 1   
   157  149  158 1   
   158  150  151 1   
   159  150  152 1   
   160  159  160 1   
   161  159  168 1   
   162  160  161 1   
   163  160  163 1   
   164  160  169 1   
   165  161  162 2   
   166  161  174 1   
   167  163  164 1   
   168  163  170 1   
   169  163  171 1   
   170  164  165 1   
   171  164  172 1   
   172  164  173 1   
   173  165  166 1   
   174  165  167 1   
   175  174  175 1   
   176  174  179 1   
   177  175  176 1   
   178  175  177 1   
   179  175  178 1   
   180  181  182 1   
   181  181  183 1   
   182  184  185 1   
   183  184  186 1   
   184  187  188 1   
   185  187  189 1   
@<TRIPOS>SUBSTRUCTURE
     1 MOL         1 TEMP              0 ****  ****    0 ROOT
