@<TRIPOS>MOLECULE
MOL
  201   193     1     0     0
SMALL
resp


@<TRIPOS>ATOM
      1 C1          4.0560   -4.7420   -2.3190 c3        1 MOL     -0.564658
      2 C2          3.2820   -4.1340   -1.1740 c         1 MOL      0.953523
      3 O1          2.8010   -3.0340   -1.3680 o         1 MOL     -0.518776
      4 H1          4.8910   -4.0920   -2.5780 hc        1 MOL      0.087956
      5 H2          4.4360   -5.7200   -2.0220 hc        1 MOL      0.087956
      6 H3          3.4010   -4.8530   -3.1830 hc        1 MOL      0.087956
      7 N1          3.0390   -4.8400   -0.0180 n         1 MOL     -0.858465
      8 C3          2.1640   -4.4180    1.0770 c3        1 MOL     -0.020513
      9 C4          0.6240   -4.2480    0.8210 c         1 MOL      0.728680
     10 O2         -0.0420   -3.3090    1.2890 o         1 MOL     -0.597816
     11 C5          2.8040   -3.1640    1.7860 c3        1 MOL     -0.320384
     12 C6          4.2050   -3.2410    2.3150 c         1 MOL      0.583730
     13 O3          4.8330   -4.3770    2.3170 o         1 MOL     -0.576951
     14 O4          4.8070   -2.1840    2.5610 o         1 MOL     -0.576951
     15 H4          3.4580   -5.7600   -0.0390 hn        1 MOL      0.420827
     16 H5          2.1380   -5.2170    1.8160 h1        1 MOL      0.095785
     17 H6          2.1530   -2.8190    2.5950 hc        1 MOL      0.139414
     18 H7          2.7370   -2.3500    1.0610 hc        1 MOL      0.139414
     19 N2          0.1620   -5.1370   -0.0570 n         1 MOL     -0.477734
     20 C7         -1.2150   -5.0710   -0.5540 c3        1 MOL     -0.400786
     21 C8         -2.1300   -6.0890    0.1600 c         1 MOL      0.628218
     22 O5         -1.6180   -7.1210    0.5820 o         1 MOL     -0.602061
     23 C9         -1.1560   -5.2760   -2.1050 c3        1 MOL      0.394145
     24 C10        -0.7380   -6.6360   -2.6230 c3        1 MOL      0.327646
     25 C11        -0.2760   -4.1610   -2.8570 c3        1 MOL     -0.325304
     26 C12        -0.7890   -6.8960   -4.1360 c3        1 MOL     -0.281364
     27 H8          0.8080   -5.8500   -0.3730 hn        1 MOL      0.307464
     28 H9         -1.5890   -4.0890   -0.2730 h1        1 MOL      0.230241
     29 H10        -2.1790   -5.1100   -2.4460 hc        1 MOL     -0.039807
     30 H11        -1.4250   -7.3440   -2.1730 hc        1 MOL     -0.088052
     31 H12         0.2920   -6.7950   -2.3020 hc        1 MOL     -0.088052
     32 H13        -0.2560   -4.3220   -3.9330 hc        1 MOL      0.060122
     33 H14        -0.7160   -3.1880   -2.6530 hc        1 MOL      0.060122
     34 H15         0.7540   -4.0840   -2.4880 hc        1 MOL      0.060122
     35 H16        -1.7170   -6.5010   -4.5710 hc        1 MOL      0.053298
     36 H17         0.0950   -6.4070   -4.5570 hc        1 MOL      0.053298
     37 H18        -0.6010   -7.9670   -4.1920 hc        1 MOL      0.053298
     38 N3         -3.4450   -5.8920    0.3010 n         1 MOL     -0.375750
     39 C13        -4.1360   -4.6420   -0.1260 c3        1 MOL      0.116904
     40 C14        -4.0860   -3.5590    0.9380 c         1 MOL      0.399179
     41 O6         -4.4290   -2.4560    0.4950 o         1 MOL     -0.480447
     42 C15        -5.5960   -4.9010   -0.6870 c3        1 MOL     -0.197595
     43 C16        -5.5050   -5.9900   -1.7130 c         1 MOL      0.635712
     44 O7         -5.7050   -7.1860   -1.3630 o         1 MOL     -0.684261
     45 O8         -5.0770   -5.7800   -2.9060 o         1 MOL     -0.684261
     46 H19        -4.0110   -6.6910    0.5320 hn        1 MOL      0.259264
     47 H20        -3.6030   -4.1740   -0.9440 h1        1 MOL      0.022182
     48 H21        -5.9220   -3.9680   -1.1450 hc        1 MOL      0.056477
     49 H22        -6.2730   -5.1700    0.1260 hc        1 MOL      0.056477
     50 N4         -3.7660   -3.7860    2.2500 n         1 MOL     -0.388350
     51 C17        -3.4640   -2.8140    3.2400 c3        1 MOL     -0.019920
     52 C18        -4.7140   -2.3350    3.9930 c         1 MOL      0.446996
     53 O9         -4.9330   -2.5640    5.1850 o         1 MOL     -0.570424
     54 H23        -3.6300   -4.7570    2.4740 hn        1 MOL      0.256837
     55 H24        -2.8570   -1.9690    2.9230 h1        1 MOL      0.101742
     56 H25        -2.7750   -3.2760    3.9410 h1        1 MOL      0.101742
     57 N5         -5.4810   -1.5400    3.3070 n         1 MOL     -0.316390
     58 C19        -6.6700   -0.8130    3.6890 c3        1 MOL      0.138178
     59 C20        -7.7100   -0.7820    2.5600 c         1 MOL      0.256780
     60 O10        -8.7120   -0.0590    2.5710 o         1 MOL     -0.509836
     61 C21        -6.4420    0.5940    4.2310 c3        1 MOL     -0.081866
     62 C22        -5.4770    1.4470    3.3070 c         1 MOL      0.672108
     63 O11        -5.3560    1.1430    2.0870 o         1 MOL     -0.651653
     64 O12        -4.9450    2.5130    3.7420 o         1 MOL     -0.651653
     65 H26        -5.1430   -1.3060    2.3860 hn        1 MOL      0.170023
     66 H27        -7.1820   -1.2310    4.5540 h1        1 MOL      0.071072
     67 H28        -6.0230    0.4710    5.2240 hc        1 MOL      0.006755
     68 H29        -7.4120    1.0710    4.3710 hc        1 MOL      0.006755
     69 N6         -7.4260   -1.3630    1.3830 n         1 MOL     -0.154450
     70 C23        -8.1450   -1.2250    0.0890 c3        1 MOL     -0.247261
     71 C24        -8.0720    0.1270   -0.6590 c         1 MOL      0.705416
     72 O13        -8.4130    0.1610   -1.7990 o         1 MOL     -0.622430
     73 H30        -6.6320   -1.9870    1.4100 hn        1 MOL      0.174432
     74 H31        -9.2060   -1.3250    0.3310 h1        1 MOL      0.099058
     75 H32        -7.8440   -2.0400   -0.5670 h1        1 MOL      0.099058
     76 N7         -7.6750    1.1780   -0.0170 n         1 MOL     -0.320057
     77 C25        -7.6800    2.5860   -0.5620 c3        1 MOL      0.016711
     78 C26        -6.7340    2.9520   -1.7000 c         1 MOL      0.385313
     79 O14        -6.8270    4.0830   -2.2440 o         1 MOL     -0.523753
     80 C27        -9.1130    3.0290   -0.7510 c3        1 MOL      0.208321
     81 C28       -10.0340    2.9060    0.5040 c3        1 MOL     -0.241665
     82 C29       -11.4220    3.5820    0.2130 c         1 MOL      0.671471
     83 N8        -12.4060    3.4220    0.9760 n         1 MOL     -0.750621
     84 O15       -11.6000    4.3210   -0.7910 o         1 MOL     -0.591458
     85 H33        -7.4950    0.9790    0.9560 hn        1 MOL      0.250335
     86 H34        -7.3330    3.2590    0.2280 h1        1 MOL      0.109343
     87 H35        -9.5360    2.4350   -1.5600 hc        1 MOL     -0.027988
     88 H36        -9.0480    4.0660   -1.0760 hc        1 MOL     -0.027988
     89 H37        -9.5830    3.4430    1.3450 hc        1 MOL      0.043883
     90 H38       -10.1480    1.8600    0.7780 hc        1 MOL      0.043883
     91 H39       -12.2590    2.8440    1.7910 hn        1 MOL      0.340273
     92 H40       -13.3500    3.5630    0.6190 hn        1 MOL      0.340273
     93 N9         -5.8260    2.1100   -2.0600 n         1 MOL     -0.173906
     94 C30        -4.9750    2.2370   -3.2690 c3        1 MOL     -0.138597
     95 C31        -3.4850    2.5030   -3.0120 c         1 MOL      0.644630
     96 O16        -2.8590    3.1410   -3.8320 o         1 MOL     -0.598456
     97 C32        -4.9750    0.9620   -4.2000 c3        1 MOL      0.376019
     98 C33        -5.1120   -0.2990   -3.3890 c3        1 MOL     -0.414288
     99 C34        -6.1520    1.0240   -5.2150 c3        1 MOL     -0.414288
    100 H41        -5.6720    1.2990   -1.4700 hn        1 MOL      0.153906
    101 H42        -5.3550    3.0110   -3.9410 h1        1 MOL      0.095941
    102 H43        -4.0320    0.9240   -4.7450 hc        1 MOL     -0.052404
    103 H44        -4.4270   -0.3440   -2.5430 hc        1 MOL      0.098552
    104 H45        -6.1270   -0.3810   -2.9960 hc        1 MOL      0.098552
    105 H46        -4.7790   -1.1680   -3.9620 hc        1 MOL      0.098552
    106 H47        -6.0680    1.9210   -5.8340 hc        1 MOL      0.098552
    107 H48        -5.9930    0.0820   -5.7390 hc        1 MOL      0.098552
    108 H49        -7.0880    0.9690   -4.6570 hc        1 MOL      0.098552
    109 N10        -2.9910    2.0810   -1.8760 n         1 MOL     -0.527920
    110 C35        -1.5430    2.0290   -1.5900 c3        1 MOL      0.107259
    111 C36        -1.0940    3.0750   -0.5520 c         1 MOL      0.713748
    112 O17        -1.9830    3.5410    0.1330 o         1 MOL     -0.569391
    113 C37        -1.3340    0.5510   -1.1350 c3        1 MOL     -0.086281
    114 C38         0.1110    0.0370   -1.0450 c         1 MOL      0.479656
    115 N11         0.3000   -1.2110   -0.7600 n         1 MOL     -0.568114
    116 O18         1.0360    0.7840   -1.2180 o         1 MOL     -0.521648
    117 H50        -3.6160    1.4270   -1.4290 hn        1 MOL      0.268966
    118 H51        -1.0060    2.2120   -2.5210 h1        1 MOL      0.035456
    119 H52        -1.8810   -0.1400   -1.7870 hc        1 MOL      0.062551
    120 H53        -1.6960    0.3480   -0.1310 hc        1 MOL      0.062551
    121 H54        -0.3910   -1.8440   -0.3890 hn        1 MOL      0.294764
    122 H55         1.2900   -1.4480   -0.6990 hn        1 MOL      0.294764
    123 N12         0.1560    3.3480   -0.3860 n         1 MOL     -0.548770
    124 C39         0.7420    4.4180    0.5180 c3        1 MOL      0.091613
    125 C40         2.1200    4.7510    0.0260 c         1 MOL      0.442409
    126 O19         2.7590    3.8550   -0.5810 o         1 MOL     -0.483226
    127 C41         0.7500    3.9200    2.0430 c3        1 MOL     -0.165616
    128 C42         1.8100    2.9390    2.5020 ca        1 MOL      0.149785
    129 C43         1.7460    1.5650    2.1470 ca        1 MOL     -0.194678
    130 C44         2.8930    3.3610    3.2970 ca        1 MOL     -0.194678
    131 C45         2.7480    0.6570    2.5900 ca        1 MOL     -0.254747
    132 C46         3.8650    2.4540    3.6630 ca        1 MOL     -0.254747
    133 C47         3.8410    1.1230    3.3580 ca        1 MOL      0.333652
    134 O20         4.8780    0.2360    3.7650 oh        1 MOL     -0.569389
    135 H56         0.8550    2.7620   -0.8180 hn        1 MOL      0.249962
    136 H57         0.0850    5.2700    0.3390 h1        1 MOL      0.079789
    137 H58        -0.1610    3.4520    2.4100 hc        1 MOL      0.067398
    138 H59         0.7840    4.8520    2.6140 hc        1 MOL      0.067398
    139 H60         0.9030    1.2710    1.5390 ha        1 MOL      0.148394
    140 H61         3.1590    4.3750    3.5350 ha        1 MOL      0.148394
    141 H62         2.5960   -0.3840    2.3840 ha        1 MOL      0.134266
    142 H63         4.7820    2.7950    4.1120 ha        1 MOL      0.134266
    143 H64         4.7330   -0.6560    3.4420 ho        1 MOL      0.416897
    144 N13         2.6260    5.9710    0.2230 n         1 MOL     -0.400411
    145 C48         4.0430    6.2650    0.0670 c3        1 MOL     -0.020298
    146 C49         4.8500    5.8160    1.3270 c         1 MOL      0.441217
    147 O21         4.4740    6.3680    2.4080 o         1 MOL     -0.520481
    148 C50         4.2700    7.7550   -0.1420 c3        1 MOL     -0.126295
    149 C51         3.4370    8.2400   -1.3630 c3        1 MOL     -0.049166
    150 C52         3.6730    9.7420   -1.6640 c         1 MOL      0.639562
    151 O22         3.1820   10.5010   -0.8120 o         1 MOL     -0.645787
    152 O23         4.3690   10.1920   -2.5980 o         1 MOL     -0.645787
    153 H65         1.9980    6.6730    0.5990 hn        1 MOL      0.328337
    154 H66         4.4490    5.8170   -0.8420 h1        1 MOL      0.142777
    155 H67         5.2910    7.9000   -0.4980 hc        1 MOL      0.076899
    156 H68         4.0480    8.2810    0.7920 hc        1 MOL      0.076899
    157 H69         2.3890    7.9920   -1.1940 hc        1 MOL     -0.015886
    158 H70         3.7750    7.7000   -2.2500 hc        1 MOL     -0.015886
    159 N14         5.8510    4.9050    1.2390 n         1 MOL     -0.507524
    160 C53         5.7950    3.6070    0.4700 c3        1 MOL      0.097582
    161 C54         6.0400    3.7690   -1.0270 c         1 MOL      0.465598
    162 O24         6.8440    4.6340   -1.3250 o         1 MOL     -0.547565
    163 C55         6.6770    2.5860    1.1500 c3        1 MOL     -0.216444
    164 C56         6.9420    1.2360    0.4050 c3        1 MOL      0.171432
    165 C57         7.8040    0.3160    1.2260 c         1 MOL      0.337700
    166 O25         7.9720    0.5050    2.4640 o         1 MOL     -0.555238
    167 O26         8.4250   -0.6510    0.6430 o         1 MOL     -0.555238
    168 H71         6.4700    4.9300    2.0470 hn        1 MOL      0.324616
    169 H72         4.7560    3.2680    0.5170 h1        1 MOL      0.079261
    170 H73         6.3010    2.4390    2.1590 hc        1 MOL      0.067799
    171 H74         7.6470    3.0540    1.2800 hc        1 MOL      0.067799
    172 H75         7.4240    1.4320   -0.5570 hc        1 MOL     -0.020113
    173 H76         6.0090    0.7340    0.1650 hc        1 MOL     -0.020113
    174 N15         5.3640    2.9700   -1.8470 n         1 MOL     -0.194152
    175 C58         5.4380    3.0410   -3.3460 c3        1 MOL     -0.209404
    176 H77         6.3540    3.5520   -3.6410 h1        1 MOL      0.092335
    177 H78         5.4360    2.0320   -3.7590 h1        1 MOL      0.092335
    178 H79         4.5770    3.5910   -3.7270 h1        1 MOL      0.092335
    179 H80         4.6800    2.3080   -1.5170 hn        1 MOL      0.221228
    180 Ca1         8.1370   -2.8480   -0.6570 Ca        1 MOL      1.643222
    181 O27        10.0420   -5.4750   -0.9300 oh        1 MOL     -0.737843
    182 H81        10.0170   -5.6160   -1.8840 ho        1 MOL      0.335624
    183 H82        10.2030   -6.3380   -0.5630 ho        1 MOL      0.335624
    184 O28         9.1470   -3.5120   -3.0550 oh        1 MOL     -0.737843
    185 H83         9.3330   -4.4310   -3.2290 ho        1 MOL      0.335624
    186 H84         9.6490   -3.0320   -3.7200 ho        1 MOL      0.335624
    187 O29         7.0220   -4.5490    0.9330 oh        1 MOL     -0.737843
    188 H85         7.3470   -5.4330    0.7750 ho        1 MOL      0.335624
    189 H86         6.3230   -4.6540    1.5800 ho        1 MOL      0.335624
    190 O30        10.8160   -2.2900   -0.8820 oh        1 MOL     -0.737843
    191 H87        11.3420   -2.6990   -1.5770 ho        1 MOL      0.335624
    192 H88        11.3690   -2.3450   -0.1010 ho        1 MOL      0.335624
    193 O31         7.9040   -0.6840   -2.3860 oh        1 MOL     -0.737843
    194 H89         8.6470   -0.0830   -2.4840 ho        1 MOL      0.335624
    195 H90         7.1990   -0.2560   -2.8690 ho        1 MOL      0.335624
    196 O32         5.8190   -1.9640   -0.0470 oh        1 MOL     -0.737843
    197 H91         5.1700   -1.4230   -0.4890 ho        1 MOL      0.335624
    198 H92         5.4450   -2.1080    0.8270 ho        1 MOL      0.335624
    199 O33         9.5700   -3.6390    1.5690 oh        1 MOL     -0.737843
    200 H93         9.3320   -4.4080    2.0860 ho        1 MOL      0.335624
    201 H94        10.4410   -3.4050    1.8640 ho        1 MOL      0.335624
@<TRIPOS>BOND
     1    1    2 1   
     2    1    4 1   
     3    1    5 1   
     4    1    6 1   
     5    2    3 2   
     6    2    7 1   
     7    7    8 1   
     8    7   15 1   
     9    8    9 1   
    10    8   11 1   
    11    8   16 1   
    12    9   10 2   
    13    9   19 1   
    14   11   12 1   
    15   11   17 1   
    16   11   18 1   
    17   12   13 1   
    18   12   14 1   
    19   19   20 1   
    20   19   27 1   
    21   20   21 1   
    22   20   23 1   
    23   20   28 1   
    24   21   22 2   
    25   21   38 1   
    26   23   24 1   
    27   23   25 1   
    28   23   29 1   
    29   24   26 1   
    30   24   30 1   
    31   24   31 1   
    32   25   32 1   
    33   25   33 1   
    34   25   34 1   
    35   26   35 1   
    36   26   36 1   
    37   26   37 1   
    38   38   39 1   
    39   38   46 1   
    40   39   40 1   
    41   39   42 1   
    42   39   47 1   
    43   40   41 2   
    44   40   50 1   
    45   42   43 1   
    46   42   48 1   
    47   42   49 1   
    48   43   44 1   
    49   43   45 1   
    50   50   51 1   
    51   50   54 1   
    52   51   52 1   
    53   51   55 1   
    54   51   56 1   
    55   52   53 2   
    56   52   57 1   
    57   57   58 1   
    58   57   65 1   
    59   58   59 1   
    60   58   61 1   
    61   58   66 1   
    62   59   60 2   
    63   59   69 1   
    64   61   62 1   
    65   61   67 1   
    66   61   68 1   
    67   62   63 1   
    68   62   64 1   
    69   69   70 1   
    70   69   73 1   
    71   70   71 1   
    72   70   74 1   
    73   70   75 1   
    74   71   72 2   
    75   71   76 1   
    76   76   77 1   
    77   76   85 1   
    78   77   78 1   
    79   77   80 1   
    80   77   86 1   
    81   78   79 2   
    82   78   93 1   
    83   80   81 1   
    84   80   87 1   
    85   80   88 1   
    86   81   82 1   
    87   81   89 1   
    88   81   90 1   
    89   82   83 1   
    90   82   84 2   
    91   83   91 1   
    92   83   92 1   
    93   93   94 1   
    94   93  100 1   
    95   94   95 1   
    96   94   97 1   
    97   94  101 1   
    98   95   96 2   
    99   95  109 1   
   100   97   98 1   
   101   97   99 1   
   102   97  102 1   
   103   98  103 1   
   104   98  104 1   
   105   98  105 1   
   106   99  106 1   
   107   99  107 1   
   108   99  108 1   
   109  109  110 1   
   110  109  117 1   
   111  110  111 1   
   112  110  113 1   
   113  110  118 1   
   114  111  112 2   
   115  111  123 1   
   116  113  114 1   
   117  113  119 1   
   118  113  120 1   
   119  114  115 1   
   120  114  116 2   
   121  115  121 1   
   122  115  122 1   
   123  123  124 1   
   124  123  135 1   
   125  124  125 1   
   126  124  127 1   
   127  124  136 1   
   128  125  126 2   
   129  125  144 1   
   130  127  128 1   
   131  127  137 1   
   132  127  138 1   
   133  128  129 ar  
   134  128  130 ar  
   135  129  131 ar  
   136  129  139 1   
   137  130  132 ar  
   138  130  140 1   
   139  131  133 ar  
   140  131  141 1   
   141  132  133 ar  
   142  132  142 1   
   143  133  134 1   
   144  134  143 1   
   145  144  145 1   
   146  144  153 1   
   147  145  146 1   
   148  145  148 1   
   149  145  154 1   
   150  146  147 2   
   151  146  159 1   
   152  148  149 1   
   153  148  155 1   
   154  148  156 1   
   155  149  150 1   
   156  149  157 1   
   157  149  158 1   
   158  150  151 1   
   159  150  152 1   
   160  159  160 1   
   161  159  168 1   
   162  160  161 1   
   163  160  163 1   
   164  160  169 1   
   165  161  162 2   
   166  161  174 1   
   167  163  164 1   
   168  163  170 1   
   169  163  171 1   
   170  164  165 1   
   171  164  172 1   
   172  164  173 1   
   173  165  166 1   
   174  165  167 1   
   175  174  175 1   
   176  174  179 1   
   177  175  176 1   
   178  175  177 1   
   179  175  178 1   
   180  181  182 1   
   181  181  183 1   
   182  184  185 1   
   183  184  186 1   
   184  187  188 1   
   185  187  189 1   
   186  190  191 1   
   187  190  192 1   
   188  193  194 1   
   189  193  195 1   
   190  196  197 1   
   191  196  198 1   
   192  199  200 1   
   193  199  201 1   
@<TRIPOS>SUBSTRUCTURE
     1 MOL         1 TEMP              0 ****  ****    0 ROOT
