@<TRIPOS>MOLECULE
MOL
  192   187     1     0     0
SMALL
resp


@<TRIPOS>ATOM
      1 C1          9.3960    0.9870    1.9310 c3        1 MOL     -0.424384
      2 C2          8.3140    0.9090    0.8890 c         1 MOL      0.687813
      3 O1          7.4060    1.7910    0.8220 o         1 MOL     -0.618621
      4 H1          8.9450    0.9770    2.9240 hc        1 MOL      0.106332
      5 H2         10.0630    0.1320    1.8280 hc        1 MOL      0.106332
      6 H3          9.9630    1.9090    1.8000 hc        1 MOL      0.106332
      7 N1          8.3440   -0.1590    0.0270 n         1 MOL     -0.419537
      8 C3          7.4590   -0.3710   -1.1140 c3        1 MOL     -0.049542
      9 C4          6.8980   -1.8400   -1.2290 c         1 MOL      0.527719
     10 O2          6.8650   -2.4830   -2.2910 o         1 MOL     -0.439131
     11 C5          8.1820    0.1280   -2.3760 c3        1 MOL     -0.221493
     12 C6          9.5020   -0.6630   -2.8030 c         1 MOL      0.727221
     13 O3         10.1230   -0.3240   -3.7980 o         1 MOL     -0.645192
     14 O4          9.8400   -1.5890   -2.0490 o         1 MOL     -0.645192
     15 H4          9.1380   -0.7850    0.0520 hn        1 MOL      0.231777
     16 H5          6.5560    0.2500   -1.0690 h1        1 MOL      0.132539
     17 H6          8.4450    1.1820   -2.2780 hc        1 MOL      0.066116
     18 H7          7.3890    0.0380   -3.1180 hc        1 MOL      0.066116
     19 N2          6.6620   -2.3860   -0.0370 n         1 MOL     -0.463018
     20 C7          6.0440   -3.7550    0.1360 c3        1 MOL      0.058760
     21 C8          4.6240   -3.9560   -0.3740 c         1 MOL      0.498580
     22 O5          4.4180   -5.0570   -0.8920 o         1 MOL     -0.554419
     23 C9          6.1140   -4.0380    1.6290 c3        1 MOL     -0.255204
     24 C10         7.5370   -4.2110    2.1320 c3        1 MOL      0.172338
     25 C11         7.6720   -4.7110    3.4990 c3        1 MOL     -0.040017
     26 C12         9.1550   -5.0660    3.8530 c3        1 MOL      0.143227
     27 N3          9.3170   -5.2880    5.3710 n4        1 MOL     -0.424219
     28 H8          6.7870   -1.8740    0.8320 hn        1 MOL      0.219453
     29 H9          6.7450   -4.3420   -0.4590 h1        1 MOL      0.119378
     30 H10         5.6340   -5.0050    1.7860 hc        1 MOL      0.091288
     31 H11         5.6240   -3.2640    2.2090 hc        1 MOL      0.091288
     32 H12         8.0610   -3.2570    2.0630 hc        1 MOL     -0.008054
     33 H13         8.1150   -4.9430    1.5630 hc        1 MOL     -0.008054
     34 H14         7.0870   -5.6260    3.5820 hc        1 MOL      0.007720
     35 H15         7.3840   -3.9610    4.2390 hc        1 MOL      0.007720
     36 H16         9.6310   -4.1290    3.5630 hx        1 MOL      0.052366
     37 H17         9.5750   -5.8810    3.2690 hx        1 MOL      0.052366
     38 H18         9.0680   -4.4270    5.8240 hn        1 MOL      0.301821
     39 H19         8.7200   -6.0710    5.6040 hn        1 MOL      0.301821
     40 H20        10.2800   -5.4640    5.6140 hn        1 MOL      0.301821
     41 N4          3.6370   -3.1130   -0.2390 n         1 MOL     -0.386574
     42 C13         3.6140   -1.8440    0.4910 c3        1 MOL      0.006704
     43 C14         3.8300   -0.6530   -0.4830 c         1 MOL      0.316869
     44 O6          3.8690   -0.8630   -1.7660 o         1 MOL     -0.414050
     45 C15         2.3920   -1.6850    1.4320 c3        1 MOL      0.053827
     46 C16         1.0630   -2.0940    0.8990 c         1 MOL      0.560956
     47 O7          0.6900   -1.5730   -0.1920 o         1 MOL     -0.610960
     48 O8          0.3720   -2.9110    1.4620 o         1 MOL     -0.610960
     49 H21         2.8000   -3.3970   -0.7200 hn        1 MOL      0.347164
     50 H22         4.5350   -1.7950    1.0630 h1        1 MOL      0.072326
     51 H23         2.4140   -0.6770    1.8310 hc        1 MOL     -0.019649
     52 H24         2.7220   -2.3190    2.2520 hc        1 MOL     -0.019649
     53 N5          3.8480    0.5570    0.0890 n         1 MOL     -0.444202
     54 C17         4.0400    1.8320   -0.5980 c3        1 MOL     -0.017809
     55 C18         2.7160    2.4730   -1.1110 c         1 MOL      0.590872
     56 O9          1.6500    1.9340   -0.8230 o         1 MOL     -0.689536
     57 H25         3.6920    0.5850    1.0880 hn        1 MOL      0.315401
     58 H26         4.8170    1.7760   -1.3620 h1        1 MOL      0.092776
     59 H27         4.2390    2.6000    0.1450 h1        1 MOL      0.092776
     60 N6          2.8310    3.7020   -1.6900 n         1 MOL     -0.511641
     61 C19         1.7650    4.6120   -2.1880 c3        1 MOL      0.269019
     62 C20         2.2740    6.0800   -2.1670 c         1 MOL      0.489606
     63 O10         3.4840    6.2940   -2.0000 o         1 MOL     -0.534943
     64 C21         1.3790    4.2510   -3.6770 c3        1 MOL     -0.283629
     65 C22         0.8810    2.8230   -3.8910 c         1 MOL      0.680098
     66 O11         1.2450    2.1070   -4.8820 o         1 MOL     -0.659044
     67 O12        -0.0150    2.5100   -3.0880 o         1 MOL     -0.659044
     68 H28         3.7450    4.1360   -1.7040 hn        1 MOL      0.279252
     69 H29         0.8880    4.5670   -1.5390 h1        1 MOL      0.053422
     70 H30         2.2730    4.2580   -4.3070 hc        1 MOL      0.062947
     71 H31         0.7780    5.0980   -4.0320 hc        1 MOL      0.062947
     72 N7          1.4620    7.0880   -2.3580 n         1 MOL     -0.480402
     73 C23        -0.0010    7.0730   -2.3430 c3        1 MOL      0.012796
     74 C24        -0.5540    6.6780   -0.9250 c         1 MOL      0.505603
     75 O13         0.1350    6.9120    0.0720 o         1 MOL     -0.489125
     76 H32         1.8700    7.9870   -2.5660 hn        1 MOL      0.336069
     77 H33        -0.4340    6.4130   -3.0850 h1        1 MOL      0.065223
     78 H34        -0.3950    8.0250   -2.6760 h1        1 MOL      0.065223
     79 N8         -1.6240    5.8810   -0.8280 n         1 MOL     -0.573964
     80 C25        -2.2110    5.1770    0.3420 c3        1 MOL     -0.016971
     81 C26        -1.3860    3.9640    0.7880 c         1 MOL      0.824461
     82 O14        -0.9500    3.1370   -0.0180 o         1 MOL     -0.664098
     83 C27        -3.6850    4.8500    0.1100 c3        1 MOL      0.232988
     84 C28        -4.4290    4.4180    1.3840 c3        1 MOL     -0.161222
     85 O15        -3.8850    3.8040   -0.7990 oh        1 MOL     -0.643585
     86 H35        -2.0560    5.5880   -1.6960 hn        1 MOL      0.305689
     87 H36        -2.1270    5.9010    1.1510 h1        1 MOL      0.100283
     88 H37        -4.3600    5.6280   -0.2580 h1        1 MOL      0.045152
     89 H38        -4.6000    4.0870   -1.3770 ho        1 MOL      0.438292
     90 H39        -4.2600    5.2510    2.0740 hc        1 MOL      0.044441
     91 H40        -5.4670    4.3520    1.0850 hc        1 MOL      0.044441
     92 H41        -4.1570    3.4580    1.8210 hc        1 MOL      0.044441
     93 N9         -1.2120    3.8290    2.0720 n         1 MOL     -0.558028
     94 C29        -0.5830    2.7390    2.8590 c3        1 MOL     -0.121175
     95 C30        -1.0950    1.2880    2.4800 c         1 MOL      0.629036
     96 O16        -0.6620    0.7300    1.4960 o         1 MOL     -0.571622
     97 C31         0.9470    2.8850    2.8030 c3        1 MOL      0.017015
     98 C32         1.5320    4.2170    3.3340 c3        1 MOL      0.030555
     99 C33         1.6760    1.6650    3.4000 c3        1 MOL     -0.240380
    100 C34         2.8930    4.7030    2.7650 c3        1 MOL     -0.100475
    101 H42        -1.5090    4.5690    2.6900 hn        1 MOL      0.296710
    102 H43        -0.9310    2.9270    3.8800 h1        1 MOL      0.085720
    103 H44         1.1500    2.8140    1.7380 hc        1 MOL      0.178651
    104 H45         1.6160    4.1140    4.4130 hc        1 MOL     -0.009300
    105 H46         0.8840    5.0620    3.1110 hc        1 MOL     -0.009300
    106 H47         2.7460    1.6430    3.1820 hc        1 MOL      0.062302
    107 H48         1.7020    1.6890    4.4890 hc        1 MOL      0.062302
    108 H49         1.1430    0.7160    3.2520 hc        1 MOL      0.062302
    109 H50         2.7440    5.1560    1.7820 hc        1 MOL      0.037920
    110 H51         3.3480    5.4770    3.3860 hc        1 MOL      0.037920
    111 H52         3.6000    3.8770    2.6660 hc        1 MOL      0.037920
    112 N10        -1.9770    0.7140    3.3120 n         1 MOL     -0.326874
    113 C35        -2.4940   -0.7090    3.0620 c3        1 MOL     -0.216568
    114 C36        -3.9600   -0.7870    3.1910 c         1 MOL      0.620195
    115 O17        -4.5280   -1.8480    3.4690 o         1 MOL     -0.582853
    116 C37        -1.7860   -1.7950    3.9540 c3        1 MOL      0.480641
    117 C38        -2.1020   -1.6250    5.4590 c3        1 MOL     -0.263487
    118 O18        -0.3910   -1.8150    3.7200 oh        1 MOL     -0.620720
    119 H53        -2.2900    1.2380    4.1180 hn        1 MOL      0.233310
    120 H54        -2.3530   -1.0330    2.0270 h1        1 MOL      0.148376
    121 H55        -2.2410   -2.7590    3.7110 h1        1 MOL     -0.003549
    122 H56        -0.1410   -2.2710    2.9220 ho        1 MOL      0.329395
    123 H57        -1.7320   -0.6650    5.8200 hc        1 MOL      0.054003
    124 H58        -3.1710   -1.8000    5.5740 hc        1 MOL      0.054003
    125 H59        -1.6150   -2.4080    6.0260 hc        1 MOL      0.054003
    126 N11        -4.6770    0.2600    2.9020 n         1 MOL     -0.344784
    127 C39        -6.1410    0.3380    2.8370 c3        1 MOL     -0.206123
    128 C40        -6.5580   -0.2300    1.4850 c         1 MOL      0.756092
    129 O19        -6.9350    0.4460    0.5450 o         1 MOL     -0.588449
    130 C41        -6.6860    1.7630    3.0460 c3        1 MOL      0.430191
    131 C42        -8.2670    1.8400    3.2200 c3        1 MOL     -0.364469
    132 O20        -6.2230    2.3940    4.1300 oh        1 MOL     -0.611356
    133 H60        -4.1040    1.0360    2.5900 hn        1 MOL      0.212904
    134 H61        -6.5380   -0.2520    3.6550 h1        1 MOL      0.104089
    135 H62        -6.4110    2.4220    2.2240 h1        1 MOL      0.016347
    136 H63        -6.6330    1.9560    4.8870 ho        1 MOL      0.391516
    137 H64        -8.6150    1.4060    4.1610 hc        1 MOL      0.091395
    138 H65        -8.5420    2.8890    3.1860 hc        1 MOL      0.091395
    139 H66        -8.7920    1.2280    2.4840 hc        1 MOL      0.091395
    140 N12        -6.5480   -1.5500    1.3770 n         1 MOL     -0.750059
    141 C43        -6.4990   -2.3000    0.0800 c3        1 MOL      0.493751
    142 C44        -5.3040   -2.0510   -0.7980 c         1 MOL      0.374585
    143 O21        -4.8160   -0.8790   -0.7920 o         1 MOL     -0.449303
    144 C45        -7.7360   -2.1350   -0.8270 c3        1 MOL     -0.578521
    145 C46        -9.0240   -2.2510   -0.0190 c3        1 MOL      0.450298
    146 C47       -10.1690   -2.2140   -1.0340 c3        1 MOL     -0.035867
    147 C48       -11.4730   -2.6060   -0.4110 c3        1 MOL     -0.073975
    148 N13       -11.6920   -4.0810   -0.4070 n4        1 MOL     -0.250734
    149 H67        -6.3250   -2.0780    2.2010 hn        1 MOL      0.333282
    150 H68        -6.4200   -3.3470    0.3660 h1        1 MOL     -0.009380
    151 H69        -7.7410   -2.9430   -1.5650 hc        1 MOL      0.143019
    152 H70        -7.7180   -1.2240   -1.4380 hc        1 MOL      0.143019
    153 H71        -9.1020   -1.5640    0.8330 hc        1 MOL     -0.106934
    154 H72        -9.0050   -3.2890    0.3120 hc        1 MOL     -0.106934
    155 H73        -9.9680   -2.7800   -1.9340 hc        1 MOL      0.052585
    156 H74       -10.4140   -1.1870   -1.3270 hc        1 MOL      0.052585
    157 H75       -12.2390   -2.0400   -0.9470 hx        1 MOL      0.104306
    158 H76       -11.4140   -2.2390    0.6180 hx        1 MOL      0.104306
    159 H77       -11.4080   -4.5220   -1.2750 hn        1 MOL      0.233802
    160 H78       -11.2090   -4.6380    0.2930 hn        1 MOL      0.233802
    161 H79       -12.6670   -4.3180   -0.3030 hn        1 MOL      0.233802
    162 N14        -4.8580   -3.0490   -1.5580 n         1 MOL     -0.508089
    163 C49        -3.6700   -2.8760   -2.3670 c3        1 MOL      0.257078
    164 C50        -2.3380   -2.5320   -1.5590 c         1 MOL      0.427632
    165 O22        -1.7700   -1.4920   -1.7740 o         1 MOL     -0.590991
    166 C51        -3.4900   -4.0750   -3.3490 c3        1 MOL      0.076437
    167 C52        -4.7220   -4.2120   -4.2810 c3        1 MOL     -0.132946
    168 C53        -4.5250   -5.3550   -5.2650 c         1 MOL      0.662569
    169 O23        -4.2400   -6.4450   -4.7680 o         1 MOL     -0.632255
    170 O24        -4.6670   -5.2620   -6.5350 o         1 MOL     -0.632255
    171 H80        -5.4340   -3.8570   -1.7110 hn        1 MOL      0.308496
    172 H81        -3.8300   -2.1390   -3.1560 h1        1 MOL      0.030357
    173 H82        -3.3820   -4.9880   -2.7600 hc        1 MOL      0.011039
    174 H83        -2.6220   -3.8260   -3.9650 hc        1 MOL      0.011039
    175 H84        -4.9500   -3.2990   -4.8330 hc        1 MOL     -0.017712
    176 H85        -5.6370   -4.4190   -3.7230 hc        1 MOL     -0.017712
    177 N15        -1.9070   -3.3850   -0.5750 n         1 MOL     -0.337341
    178 C54        -2.3770   -4.6910   -0.1190 c3        1 MOL     -0.048123
    179 H86        -2.1370   -5.4440   -0.8700 h1        1 MOL      0.044486
    180 H87        -1.8860   -4.9460    0.8200 h1        1 MOL      0.044486
    181 H88        -3.4550   -4.6580    0.0310 h1        1 MOL      0.044486
    182 H89        -1.1190   -3.0120   -0.0690 hn        1 MOL      0.317597
    183 Ca1        -0.5510    0.6760   -1.2320 Ca        1 MOL      1.805715
    184 O25         1.4540   -0.3570   -2.8930 oh        1 MOL     -0.870443
    185 H90         2.3440   -0.4040   -2.5370 ho        1 MOL      0.409106
    186 H91         1.5360    0.1700   -3.6790 ho        1 MOL      0.409106
    187 O26        -3.0930    0.9090   -0.0710 oh        1 MOL     -0.870443
    188 H92        -3.8160    0.3030   -0.2220 ho        1 MOL      0.409106
    189 H93        -3.4760    1.7800   -0.1770 ho        1 MOL      0.409106
    190 O27        -2.6170    0.9290   -3.0050 oh        1 MOL     -0.870443
    191 H94        -2.4360    1.2480   -3.8950 ho        1 MOL      0.409106
    192 H95        -3.5740    0.8170   -2.9810 ho        1 MOL      0.409106
@<TRIPOS>BOND
     1    1    2 1   
     2    1    4 1   
     3    1    5 1   
     4    1    6 1   
     5    2    3 2   
     6    2    7 1   
     7    7    8 1   
     8    7   15 1   
     9    8    9 1   
    10    8   11 1   
    11    8   16 1   
    12    9   10 2   
    13    9   19 1   
    14   11   12 1   
    15   11   17 1   
    16   11   18 1   
    17   12   13 1   
    18   12   14 1   
    19   19   20 1   
    20   19   28 1   
    21   20   21 1   
    22   20   23 1   
    23   20   29 1   
    24   21   22 2   
    25   21   41 1   
    26   23   24 1   
    27   23   30 1   
    28   23   31 1   
    29   24   25 1   
    30   24   32 1   
    31   24   33 1   
    32   25   26 1   
    33   25   34 1   
    34   25   35 1   
    35   26   27 1   
    36   26   36 1   
    37   26   37 1   
    38   27   38 1   
    39   27   39 1   
    40   27   40 1   
    41   41   42 1   
    42   41   49 1   
    43   42   43 1   
    44   42   45 1   
    45   42   50 1   
    46   43   44 2   
    47   43   53 1   
    48   45   46 1   
    49   45   51 1   
    50   45   52 1   
    51   46   47 1   
    52   46   48 1   
    53   53   54 1   
    54   53   57 1   
    55   54   55 1   
    56   54   58 1   
    57   54   59 1   
    58   55   56 2   
    59   55   60 1   
    60   60   61 1   
    61   60   68 1   
    62   61   62 1   
    63   61   64 1   
    64   61   69 1   
    65   62   63 2   
    66   62   72 1   
    67   64   65 1   
    68   64   70 1   
    69   64   71 1   
    70   65   66 1   
    71   65   67 1   
    72   72   73 1   
    73   72   76 1   
    74   73   74 1   
    75   73   77 1   
    76   73   78 1   
    77   74   75 2   
    78   74   79 1   
    79   79   80 1   
    80   79   86 1   
    81   80   81 1   
    82   80   83 1   
    83   80   87 1   
    84   81   82 2   
    85   81   93 1   
    86   83   84 1   
    87   83   85 1   
    88   83   88 1   
    89   84   90 1   
    90   84   91 1   
    91   84   92 1   
    92   85   89 1   
    93   93   94 1   
    94   93  101 1   
    95   94   95 1   
    96   94   97 1   
    97   94  102 1   
    98   95   96 2   
    99   95  112 1   
   100   97   98 1   
   101   97   99 1   
   102   97  103 1   
   103   98  100 1   
   104   98  104 1   
   105   98  105 1   
   106   99  106 1   
   107   99  107 1   
   108   99  108 1   
   109  100  109 1   
   110  100  110 1   
   111  100  111 1   
   112  112  113 1   
   113  112  119 1   
   114  113  114 1   
   115  113  116 1   
   116  113  120 1   
   117  114  115 2   
   118  114  126 1   
   119  116  117 1   
   120  116  118 1   
   121  116  121 1   
   122  117  123 1   
   123  117  124 1   
   124  117  125 1   
   125  118  122 1   
   126  126  127 1   
   127  126  133 1   
   128  127  128 1   
   129  127  130 1   
   130  127  134 1   
   131  128  129 2   
   132  128  140 1   
   133  130  131 1   
   134  130  132 1   
   135  130  135 1   
   136  131  137 1   
   137  131  138 1   
   138  131  139 1   
   139  132  136 1   
   140  140  141 1   
   141  140  149 1   
   142  141  142 1   
   143  141  144 1   
   144  141  150 1   
   145  142  143 2   
   146  142  162 1   
   147  144  145 1   
   148  144  151 1   
   149  144  152 1   
   150  145  146 1   
   151  145  153 1   
   152  145  154 1   
   153  146  147 1   
   154  146  155 1   
   155  146  156 1   
   156  147  148 1   
   157  147  157 1   
   158  147  158 1   
   159  148  159 1   
   160  148  160 1   
   161  148  161 1   
   162  162  163 1   
   163  162  171 1   
   164  163  164 1   
   165  163  166 1   
   166  163  172 1   
   167  164  165 2   
   168  164  177 1   
   169  166  167 1   
   170  166  173 1   
   171  166  174 1   
   172  167  168 1   
   173  167  175 1   
   174  167  176 1   
   175  168  169 1   
   176  168  170 1   
   177  177  178 1   
   178  177  182 1   
   179  178  179 1   
   180  178  180 1   
   181  178  181 1   
   182  184  185 1   
   183  184  186 1   
   184  187  188 1   
   185  187  189 1   
   186  190  191 1   
   187  190  192 1   
@<TRIPOS>SUBSTRUCTURE
     1 MOL         1 TEMP              0 ****  ****    0 ROOT
