@<TRIPOS>MOLECULE
MOL
  195   189     1     0     0
SMALL
resp


@<TRIPOS>ATOM
      1 C1        -13.4420   -3.6900   -2.0690 c3        1 MOL     -0.352973
      2 C2        -12.7480   -2.3230   -1.8210 c         1 MOL      0.652562
      3 O1        -13.2830   -1.3730   -2.3660 o         1 MOL     -0.555378
      4 H1        -13.2970   -3.9870   -3.1080 hc        1 MOL      0.089100
      5 H2        -13.0080   -4.4430   -1.4120 hc        1 MOL      0.089100
      6 H3        -14.5090   -3.6000   -1.8640 hc        1 MOL      0.089100
      7 N1        -11.6150   -2.2290   -1.0880 n         1 MOL     -0.374953
      8 C3        -10.8700   -1.0080   -0.8990 c3        1 MOL      0.028218
      9 C4         -9.3900   -1.2250   -1.0350 c         1 MOL      0.229019
     10 O2         -8.8820   -2.3940   -1.0950 o         1 MOL     -0.519985
     11 C5        -11.0480   -0.3530    0.5360 c3        1 MOL     -0.281951
     12 C6        -10.7300   -1.3790    1.7410 c         1 MOL      0.622584
     13 O3        -10.1080   -2.4270    1.5980 o         1 MOL     -0.644262
     14 O4        -11.0740   -1.0320    2.8590 o         1 MOL     -0.644262
     15 H4        -11.0950   -3.0250   -0.7400 hn        1 MOL      0.233049
     16 H5        -11.0600   -0.2860   -1.6930 h1        1 MOL      0.069644
     17 H6        -12.0820   -0.0190    0.5910 hc        1 MOL      0.112249
     18 H7        -10.4110    0.5340    0.6510 hc        1 MOL      0.112249
     19 N2         -8.6950   -0.1610   -1.4250 n         1 MOL     -0.125481
     20 C7         -7.2590   -0.1140   -1.6720 c3        1 MOL     -0.017701
     21 C8         -6.5740    0.2930   -0.3410 c         1 MOL      0.945151
     22 O5         -7.0150    1.2480    0.2440 o         1 MOL     -0.570246
     23 C9         -6.9420    0.8360   -2.9080 c3        1 MOL     -0.161360
     24 C10        -7.3710    2.3320   -2.8340 c3        1 MOL     -0.086081
     25 C11        -6.8980    2.9990   -4.1330 c3        1 MOL     -0.137136
     26 C12        -5.3890    3.1240   -4.3110 c3        1 MOL      0.048169
     27 N3         -4.8820    3.9100   -5.4260 n4        1 MOL     -0.220478
     28 H8         -9.1110    0.7480   -1.3230 hn        1 MOL      0.182251
     29 H9         -6.9840   -1.1530   -1.8640 h1        1 MOL      0.086175
     30 H10        -7.2330    0.3700   -3.8520 hc        1 MOL      0.044950
     31 H11        -5.8530    0.8070   -2.8400 hc        1 MOL      0.044950
     32 H12        -6.9190    2.9060   -2.0250 hc        1 MOL      0.091444
     33 H13        -8.4650    2.4100   -2.8110 hc        1 MOL      0.091444
     34 H14        -7.1810    4.0500   -4.0970 hc        1 MOL      0.060500
     35 H15        -7.4040    2.6040   -5.0090 hc        1 MOL      0.060500
     36 H16        -4.8720    2.1620   -4.3860 hx        1 MOL      0.090479
     37 H17        -5.0050    3.4620   -3.3530 hx        1 MOL      0.090479
     38 H18        -3.9730    4.3380   -5.3880 hn        1 MOL      0.253663
     39 H19        -4.8540    3.2310   -6.1780 hn        1 MOL      0.253663
     40 H20        -5.4990    4.6510   -5.7240 hn        1 MOL      0.253663
     41 N4         -5.6040   -0.5410    0.0830 n         1 MOL     -1.316713
     42 C13        -4.8380   -0.3740    1.3100 c3        1 MOL      1.179439
     43 C14        -3.3170   -0.5100    1.1630 c         1 MOL      0.409670
     44 O6         -2.8520   -1.1120    0.2070 o         1 MOL     -0.518484
     45 C15        -5.3790   -1.2600    2.4450 c3        1 MOL     -0.614455
     46 C16        -5.5420   -2.7600    2.0620 c         1 MOL      0.954374
     47 O7         -6.6960   -3.2760    2.2140 o         1 MOL     -0.795295
     48 O8         -4.6610   -3.3980    1.5260 o         1 MOL     -0.795295
     49 H21        -5.2550   -1.3550   -0.4120 hn        1 MOL      0.366039
     50 H22        -5.0400    0.6460    1.6280 h1        1 MOL     -0.115669
     51 H23        -6.3690   -0.8480    2.6570 hc        1 MOL      0.105750
     52 H24        -4.7130   -1.1090    3.3030 hc        1 MOL      0.105750
     53 N5         -2.5420    0.1360    2.0010 n         1 MOL     -0.495548
     54 C17        -2.9090    0.9520    3.1530 c3        1 MOL     -0.233173
     55 C18        -3.0670    2.4430    2.8270 c         1 MOL      0.667751
     56 O9         -3.7280    2.7380    1.7720 o         1 MOL     -0.595006
     57 H25        -1.5530    0.1440    1.7950 hn        1 MOL      0.357564
     58 H26        -2.1380    0.8450    3.9200 h1        1 MOL      0.107117
     59 H27        -3.8360    0.6430    3.6400 h1        1 MOL      0.107117
     60 N6         -2.4050    3.2760    3.6230 n         1 MOL     -0.439318
     61 C19        -2.4380    4.6890    3.4690 c3        1 MOL      0.120340
     62 C20        -1.4420    5.1040    2.4540 c         1 MOL      0.688348
     63 O10        -0.3090    4.6950    2.4550 o         1 MOL     -0.578336
     64 C21        -2.0870    5.3130    4.8120 c3        1 MOL     -0.294079
     65 C22        -2.4330    6.7930    4.9910 c         1 MOL      0.699393
     66 O11        -3.2130    7.3670    4.2150 o         1 MOL     -0.668412
     67 O12        -1.7430    7.4440    5.8100 o         1 MOL     -0.668412
     68 H28        -1.8360    2.8350    4.3470 hn        1 MOL      0.261628
     69 H29        -3.4570    4.9630    3.2250 h1        1 MOL      0.025573
     70 H30        -1.0230    5.1780    5.0140 hc        1 MOL      0.074790
     71 H31        -2.6770    4.7160    5.5050 hc        1 MOL      0.074790
     72 N7         -1.9630    5.7670    1.4150 n         1 MOL     -0.468667
     73 C23        -1.1960    6.2380    0.2950 c3        1 MOL      0.041902
     74 C24        -0.8130    5.2770   -0.7630 c         1 MOL      0.407445
     75 O13        -0.1820    5.7700   -1.7670 o         1 MOL     -0.582171
     76 H32        -2.9650    5.9030    1.4120 hn        1 MOL      0.276386
     77 H33        -0.2670    6.6370    0.7110 h1        1 MOL      0.083305
     78 H34        -1.6480    7.0970   -0.1950 h1        1 MOL      0.083305
     79 N8         -1.0300    3.9640   -0.5950 n         1 MOL     -0.062228
     80 C25        -0.7090    2.8930   -1.6030 c3        1 MOL     -0.078506
     81 C26        -0.0750    1.6390   -0.8100 c         1 MOL      0.372010
     82 O14        -0.1750    1.5830    0.4430 o         1 MOL     -0.418291
     83 C27        -1.9430    2.4510   -2.4450 c3        1 MOL      0.143652
     84 C28        -3.0980    2.0270   -1.5550 c3        1 MOL     -0.513545
     85 O15        -2.5810    3.5470   -3.0900 oh        1 MOL     -0.604630
     86 H35        -1.4050    3.7310    0.3110 hn        1 MOL      0.100623
     87 H36        -0.0680    3.3570   -2.3580 h1        1 MOL      0.077406
     88 H37        -1.7600    1.6530   -3.1640 h1        1 MOL      0.050607
     89 H38        -1.8820    3.8960   -3.6490 ho        1 MOL      0.393283
     90 H39        -3.8230    1.5490   -2.2270 hc        1 MOL      0.166551
     91 H40        -2.8190    1.3250   -0.7710 hc        1 MOL      0.166551
     92 H41        -3.5360    2.9190   -1.1060 hc        1 MOL      0.166551
     93 N9          0.7330    0.8050   -1.5020 n         1 MOL     -0.252106
     94 C29         1.3110   -0.4400   -0.8580 c3        1 MOL     -0.073095
     95 C30         2.6900   -0.2810   -0.2090 c         1 MOL      0.640968
     96 O16         3.0580   -0.9880    0.7010 o         1 MOL     -0.509117
     97 C31         1.2170   -1.5300   -1.9110 c3        1 MOL      0.228525
     98 C32        -0.1210   -1.5870   -2.6770 c3        1 MOL      0.072111
     99 C33         1.6470   -2.9010   -1.4100 c3        1 MOL     -0.394771
    100 C34        -0.4070   -2.7990   -3.5520 c3        1 MOL     -0.117960
    101 H42         0.9200    0.9510   -2.4830 hn        1 MOL      0.236533
    102 H43         0.7020   -0.7540   -0.0150 h1        1 MOL      0.053283
    103 H44         1.9730   -1.2460   -2.6380 hc        1 MOL     -0.059772
    104 H45        -0.1400   -0.6940   -3.2940 hc        1 MOL     -0.029776
    105 H46        -0.9030   -1.4690   -1.9260 hc        1 MOL     -0.029776
    106 H47         2.5010   -2.8400   -0.7380 hc        1 MOL      0.112495
    107 H48         0.8060   -3.4590   -1.0070 hc        1 MOL      0.112495
    108 H49         1.9720   -3.5550   -2.2160 hc        1 MOL      0.112495
    109 H50        -0.4240   -3.7130   -2.9550 hc        1 MOL      0.022837
    110 H51        -1.2980   -2.6570   -4.1730 hc        1 MOL      0.022837
    111 H52         0.4580   -2.9140   -4.2150 hc        1 MOL      0.022837
    112 N10         3.2890    0.8380   -0.7220 n         1 MOL     -0.545522
    113 C35         4.6380    1.2940   -0.2760 c3        1 MOL      0.040776
    114 C36         5.5930    1.5460   -1.4760 c         1 MOL      0.719713
    115 O17         5.1100    1.8320   -2.5300 o         1 MOL     -0.544452
    116 C37         4.4750    2.5590    0.5970 c3        1 MOL      0.309645
    117 C38         4.0640    2.3490    2.0230 c3        1 MOL     -0.321938
    118 O18         5.7490    3.1350    0.8030 oh        1 MOL     -0.639224
    119 H53         2.8970    1.3620   -1.4890 hn        1 MOL      0.251311
    120 H54         4.9940    0.4290    0.2880 h1        1 MOL      0.059960
    121 H55         3.8290    3.2580    0.0680 h1        1 MOL      0.025826
    122 H56         5.6650    4.0070    1.2060 ho        1 MOL      0.405402
    123 H57         3.6280    3.1920    2.5530 hc        1 MOL      0.097477
    124 H58         3.2860    1.5940    2.1080 hc        1 MOL      0.097477
    125 H59         4.9200    2.1220    2.6600 hc        1 MOL      0.097477
    126 N11         6.9330    1.4240   -1.2740 n         1 MOL     -0.709152
    127 C39         7.8500    1.5800   -2.4000 c3        1 MOL     -0.036207
    128 C40         8.9670    0.4870   -2.4480 c         1 MOL      0.681807
    129 O19         9.3700    0.1620   -3.5500 o         1 MOL     -0.552472
    130 C41         8.4260    2.9520   -2.4400 c3        1 MOL      0.352210
    131 C42         9.5810    3.1290   -3.4020 c3        1 MOL     -0.392896
    132 O20         9.0660    3.3130   -1.2840 oh        1 MOL     -0.620458
    133 H60         7.3170    1.3880   -0.3430 hn        1 MOL      0.392371
    134 H61         7.2920    1.4930   -3.3410 h1        1 MOL      0.098874
    135 H62         7.6910    3.7330   -2.6060 h1        1 MOL      0.055967
    136 H63         9.9700    3.5620   -1.5230 ho        1 MOL      0.375862
    137 H64         9.2060    2.8580   -4.3890 hc        1 MOL      0.095368
    138 H65         9.7890    4.1990   -3.4460 hc        1 MOL      0.095368
    139 H66        10.4180    2.5090   -3.0890 hc        1 MOL      0.095368
    140 N12         9.4290   -0.0030   -1.2880 n         1 MOL     -0.482208
    141 C43        10.6140   -0.7340   -1.0000 c3        1 MOL     -0.132779
    142 C44        10.3090   -1.4180    0.3330 c         1 MOL      0.584419
    143 O21        10.2900   -0.7240    1.3730 o         1 MOL     -0.511278
    144 C45        11.8650    0.2150   -1.0140 c3        1 MOL     -0.224134
    145 C46        13.1960   -0.3080   -0.4330 c3        1 MOL      0.150765
    146 C47        14.2820    0.7080   -0.2360 c3        1 MOL     -0.307678
    147 C48        15.2200   -0.0180    0.7000 c3        1 MOL      0.232230
    148 N13        16.2950    0.7940    1.3530 n4        1 MOL     -0.304966
    149 H67         8.9990    0.5100   -0.5330 hn        1 MOL      0.266817
    150 H68        10.7810   -1.5160   -1.7380 h1        1 MOL      0.115116
    151 H69        11.6600    1.2080   -0.6080 hc        1 MOL      0.109148
    152 H70        12.1010    0.4780   -2.0450 hc        1 MOL      0.109148
    153 H71        13.4660   -1.2120   -0.9870 hc        1 MOL     -0.004504
    154 H72        12.8660   -0.6600    0.5520 hc        1 MOL     -0.004504
    155 H73        13.7990    1.4360    0.4210 hc        1 MOL      0.105492
    156 H74        14.9310    1.0060   -1.0630 hc        1 MOL      0.105492
    157 H75        15.7520   -0.7780    0.1140 hx        1 MOL      0.044152
    158 H76        14.6690   -0.5110    1.4960 hx        1 MOL      0.044152
    159 H77        17.0190    0.2400    1.7870 hn        1 MOL      0.261005
    160 H78        16.7820    1.4170    0.7230 hn        1 MOL      0.261005
    161 H79        15.8810    1.3220    2.1090 hn        1 MOL      0.261005
    162 N14        10.2500   -2.7550    0.3640 n         1 MOL     -0.451576
    163 C49        10.0290   -3.5470    1.5950 c3        1 MOL      0.117835
    164 C50         8.5250   -3.4500    1.8980 c         1 MOL      0.454153
    165 O22         8.2230   -2.8760    2.9440 o         1 MOL     -0.543309
    166 C51        10.5120   -5.0270    1.4750 c3        1 MOL      0.218599
    167 C52        12.0670   -5.1420    1.3170 c3        1 MOL     -0.263251
    168 C53        12.4530   -6.6060    0.9140 c         1 MOL      0.691481
    169 O23        13.4230   -6.8490    0.0860 o         1 MOL     -0.663792
    170 O24        11.9130   -7.5060    1.5220 o         1 MOL     -0.663792
    171 H80        10.4320   -3.2170   -0.5160 hn        1 MOL      0.319072
    172 H81        10.5840   -3.0340    2.3910 h1        1 MOL      0.052701
    173 H82        10.0350   -5.4590    0.5910 hc        1 MOL     -0.009955
    174 H83        10.1600   -5.5270    2.3810 hc        1 MOL     -0.009955
    175 H84        12.5410   -4.7970    2.2380 hc        1 MOL      0.009475
    176 H85        12.3220   -4.4640    0.5050 hc        1 MOL      0.009475
    177 N15         7.5290   -3.8160    1.0970 n         1 MOL     -0.444599
    178 C54         7.5290   -4.6900   -0.1770 c3        1 MOL     -0.028063
    179 H86         6.5420   -5.1320   -0.3130 h1        1 MOL      0.048085
    180 H87         7.7730   -4.0730   -1.0420 h1        1 MOL      0.048085
    181 H88         8.2700   -5.4820   -0.0740 h1        1 MOL      0.048085
    182 H89         6.5960   -3.5130    1.3530 hn        1 MOL      0.320522
    183 Ca1        -8.6510   -4.3750    0.8300 Ca        1 MOL      1.755485
    184 O25       -11.0210   -5.4160    1.2880 oh        1 MOL     -0.871727
    185 H90       -11.0070   -6.2320    1.7880 ho        1 MOL      0.428298
    186 H91       -11.8340   -4.9870    1.5540 ho        1 MOL      0.428298
    187 O26        -9.1600   -5.7640   -1.5140 oh        1 MOL     -0.871727
    188 H92        -9.5810   -5.5280   -2.3340 ho        1 MOL      0.428298
    189 H93        -9.0130   -6.7070   -1.5770 ho        1 MOL      0.428298
    190 O27        -6.4070   -4.0670   -0.6590 oh        1 MOL     -0.871727
    191 H94        -5.7960   -3.8300    0.0400 ho        1 MOL      0.428298
    192 H95        -6.0200   -3.6940   -1.4540 ho        1 MOL      0.428298
    193 O28        -9.2340   -5.2300    3.4750 oh        1 MOL     -0.871727
    194 H96       -10.1380   -5.3710    3.7440 ho        1 MOL      0.428298
    195 H97        -8.7170   -5.7930    4.0410 ho        1 MOL      0.428298
@<TRIPOS>BOND
     1    1    2 1   
     2    1    4 1   
     3    1    5 1   
     4    1    6 1   
     5    2    3 2   
     6    2    7 1   
     7    7    8 1   
     8    7   15 1   
     9    8    9 1   
    10    8   11 1   
    11    8   16 1   
    12    9   10 2   
    13    9   19 1   
    14   11   12 1   
    15   11   17 1   
    16   11   18 1   
    17   12   13 1   
    18   12   14 1   
    19   19   20 1   
    20   19   28 1   
    21   20   21 1   
    22   20   23 1   
    23   20   29 1   
    24   21   22 2   
    25   21   41 1   
    26   23   24 1   
    27   23   30 1   
    28   23   31 1   
    29   24   25 1   
    30   24   32 1   
    31   24   33 1   
    32   25   26 1   
    33   25   34 1   
    34   25   35 1   
    35   26   27 1   
    36   26   36 1   
    37   26   37 1   
    38   27   38 1   
    39   27   39 1   
    40   27   40 1   
    41   41   42 1   
    42   41   49 1   
    43   42   43 1   
    44   42   45 1   
    45   42   50 1   
    46   43   44 2   
    47   43   53 1   
    48   45   46 1   
    49   45   51 1   
    50   45   52 1   
    51   46   47 1   
    52   46   48 1   
    53   53   54 1   
    54   53   57 1   
    55   54   55 1   
    56   54   58 1   
    57   54   59 1   
    58   55   56 2   
    59   55   60 1   
    60   60   61 1   
    61   60   68 1   
    62   61   62 1   
    63   61   64 1   
    64   61   69 1   
    65   62   63 2   
    66   62   72 1   
    67   64   65 1   
    68   64   70 1   
    69   64   71 1   
    70   65   66 1   
    71   65   67 1   
    72   72   73 1   
    73   72   76 1   
    74   73   74 1   
    75   73   77 1   
    76   73   78 1   
    77   74   75 2   
    78   74   79 1   
    79   79   80 1   
    80   79   86 1   
    81   80   81 1   
    82   80   83 1   
    83   80   87 1   
    84   81   82 2   
    85   81   93 1   
    86   83   84 1   
    87   83   85 1   
    88   83   88 1   
    89   84   90 1   
    90   84   91 1   
    91   84   92 1   
    92   85   89 1   
    93   93   94 1   
    94   93  101 1   
    95   94   95 1   
    96   94   97 1   
    97   94  102 1   
    98   95   96 2   
    99   95  112 1   
   100   97   98 1   
   101   97   99 1   
   102   97  103 1   
   103   98  100 1   
   104   98  104 1   
   105   98  105 1   
   106   99  106 1   
   107   99  107 1   
   108   99  108 1   
   109  100  109 1   
   110  100  110 1   
   111  100  111 1   
   112  112  113 1   
   113  112  119 1   
   114  113  114 1   
   115  113  116 1   
   116  113  120 1   
   117  114  115 2   
   118  114  126 1   
   119  116  117 1   
   120  116  118 1   
   121  116  121 1   
   122  117  123 1   
   123  117  124 1   
   124  117  125 1   
   125  118  122 1   
   126  126  127 1   
   127  126  133 1   
   128  127  128 1   
   129  127  130 1   
   130  127  134 1   
   131  128  129 2   
   132  128  140 1   
   133  130  131 1   
   134  130  132 1   
   135  130  135 1   
   136  131  137 1   
   137  131  138 1   
   138  131  139 1   
   139  132  136 1   
   140  140  141 1   
   141  140  149 1   
   142  141  142 1   
   143  141  144 1   
   144  141  150 1   
   145  142  143 2   
   146  142  162 1   
   147  144  145 1   
   148  144  151 1   
   149  144  152 1   
   150  145  146 1   
   151  145  153 1   
   152  145  154 1   
   153  146  147 1   
   154  146  155 1   
   155  146  156 1   
   156  147  148 1   
   157  147  157 1   
   158  147  158 1   
   159  148  159 1   
   160  148  160 1   
   161  148  161 1   
   162  162  163 1   
   163  162  171 1   
   164  163  164 1   
   165  163  166 1   
   166  163  172 1   
   167  164  165 2   
   168  164  177 1   
   169  166  167 1   
   170  166  173 1   
   171  166  174 1   
   172  167  168 1   
   173  167  175 1   
   174  167  176 1   
   175  168  169 1   
   176  168  170 1   
   177  177  178 1   
   178  177  182 1   
   179  178  179 1   
   180  178  180 1   
   181  178  181 1   
   182  184  185 1   
   183  184  186 1   
   184  187  188 1   
   185  187  189 1   
   186  190  191 1   
   187  190  192 1   
   188  193  194 1   
   189  193  195 1   
@<TRIPOS>SUBSTRUCTURE
     1 MOL         1 TEMP              0 ****  ****    0 ROOT
