@<TRIPOS>MOLECULE
MOL
  195   189     1     0     0
SMALL
resp


@<TRIPOS>ATOM
      1 C1          4.4280   -7.3640    0.7590 c3        1 MOL     -0.375519
      2 C2          4.0840   -5.8210    0.8370 c         1 MOL      0.609155
      3 O1          3.6100   -5.2720    1.8280 o         1 MOL     -0.546833
      4 H1          5.1840   -7.6050    1.5060 hc        1 MOL      0.099367
      5 H2          3.5280   -7.9480    0.9510 hc        1 MOL      0.099367
      6 H3          4.8110   -7.6010   -0.2340 hc        1 MOL      0.099367
      7 N1          4.2900   -5.1540   -0.2830 n         1 MOL     -0.415354
      8 C3          4.4950   -3.6570   -0.3420 c3        1 MOL     -0.095481
      9 C4          3.1040   -2.9620   -0.5300 c         1 MOL      0.451570
     10 O2          2.9390   -1.7530   -0.4720 o         1 MOL     -0.491816
     11 C5          5.4390   -3.2180   -1.4830 c3        1 MOL     -0.229609
     12 C6          5.0970   -3.7360   -2.8440 c         1 MOL      0.698117
     13 O3          4.6580   -2.9150   -3.7580 o         1 MOL     -0.695333
     14 O4          5.3160   -4.9330   -3.0470 o         1 MOL     -0.695333
     15 H4          4.5690   -5.7100   -1.0760 hn        1 MOL      0.315002
     16 H5          4.8560   -3.2830    0.6100 h1        1 MOL      0.168786
     17 H6          6.4670   -3.5540   -1.2860 hc        1 MOL      0.080954
     18 H7          5.4780   -2.1350   -1.4690 hc        1 MOL      0.080954
     19 N2          2.1250   -3.8230   -0.8010 n         1 MOL     -0.314042
     20 C7          0.7180   -3.5770   -1.0750 c3        1 MOL      0.264581
     21 C8         -0.1850   -3.8230    0.1520 c         1 MOL      0.462930
     22 O5         -0.1840   -4.9570    0.5950 o         1 MOL     -0.531237
     23 C9          0.1340   -4.2650   -2.3190 c3        1 MOL     -0.228632
     24 C10         0.8840   -4.2140   -3.6540 c3        1 MOL     -0.136488
     25 C11         1.0680   -2.7930   -4.2010 c3        1 MOL      0.135467
     26 C12         1.5530   -2.8530   -5.6590 c3        1 MOL     -0.023513
     27 N3          2.8360   -3.4250   -5.7360 n4        1 MOL     -0.252893
     28 H8          2.3750   -4.7970   -0.8120 hn        1 MOL      0.183088
     29 H9          0.6500   -2.4980   -1.2270 h1        1 MOL      0.030603
     30 H10        -0.9340   -4.0400   -2.3650 hc        1 MOL      0.094566
     31 H11         0.1230   -5.3360   -2.1020 hc        1 MOL      0.094566
     32 H12         0.3600   -4.7950   -4.4150 hc        1 MOL      0.060017
     33 H13         1.8860   -4.6280   -3.6050 hc        1 MOL      0.060017
     34 H14         1.7680   -2.2930   -3.5370 hc        1 MOL     -0.000160
     35 H15         0.1100   -2.2870   -4.2530 hc        1 MOL     -0.000160
     36 H16         1.4380   -1.8720   -6.1050 hx        1 MOL      0.060043
     37 H17         0.8750   -3.5230   -6.1820 hx        1 MOL      0.060043
     38 H18         3.2120   -3.1030   -6.6190 hn        1 MOL      0.275669
     39 H19         3.4510   -3.0110   -5.0470 hn        1 MOL      0.275669
     40 H20         2.8990   -4.4340   -5.7300 hn        1 MOL      0.275669
     41 N4         -1.1270   -2.9020    0.6440 n         1 MOL     -0.463016
     42 C13        -1.4170   -1.5400    0.1920 c3        1 MOL     -0.138767
     43 C14        -1.8780   -1.4670   -1.3050 c         1 MOL      0.520901
     44 O6         -1.2050   -0.9790   -2.2010 o         1 MOL     -0.584732
     45 C15        -0.3740   -0.4920    0.6260 c3        1 MOL     -0.079480
     46 C16         0.0270   -0.4580    2.0750 c         1 MOL      0.884588
     47 O7          0.8770    0.3360    2.4310 o         1 MOL     -0.835185
     48 O8         -0.4740   -1.2110    2.9390 o         1 MOL     -0.835185
     49 H21        -1.6180   -3.2130    1.4710 hn        1 MOL      0.302625
     50 H22        -2.3670   -1.3000    0.6730 h1        1 MOL      0.147099
     51 H23        -0.7880    0.4730    0.3150 hc        1 MOL      0.078320
     52 H24         0.5150   -0.4960   -0.0030 hc        1 MOL      0.078320
     53 N5         -2.9550   -2.0750   -1.7650 n         1 MOL     -0.333031
     54 C17        -3.9320   -2.7830   -1.0060 c3        1 MOL      0.072425
     55 C18        -4.8130   -3.7190   -1.8130 c         1 MOL      0.572710
     56 O9         -4.4990   -3.9960   -2.9570 o         1 MOL     -0.568385
     57 H25        -3.1240   -2.0430   -2.7630 hn        1 MOL      0.278991
     58 H26        -4.5650   -2.0560   -0.4850 h1        1 MOL      0.009367
     59 H27        -3.5150   -3.3850   -0.1980 h1        1 MOL      0.009367
     60 N6         -5.9850   -4.2130   -1.3610 n         1 MOL     -0.534042
     61 C19        -6.4290   -3.9440    0.0560 c3        1 MOL      0.044696
     62 C20        -7.4360   -2.7810    0.1820 c         1 MOL      0.647967
     63 O10        -7.9940   -2.4180   -0.8380 o         1 MOL     -0.505479
     64 C21        -7.1580   -5.2430    0.4940 c3        1 MOL     -0.238426
     65 C22        -8.0710   -5.9900   -0.5000 c         1 MOL      0.727735
     66 O11        -9.3220   -5.8560   -0.3450 o         1 MOL     -0.640711
     67 O12        -7.6050   -6.6970   -1.3890 o         1 MOL     -0.640711
     68 H28        -6.5280   -4.8190   -1.9570 hn        1 MOL      0.359229
     69 H29        -5.5520   -3.8390    0.6880 h1        1 MOL      0.030037
     70 H30        -7.6780   -4.9460    1.3970 hc        1 MOL      0.040895
     71 H31        -6.4450   -5.9480    0.9340 hc        1 MOL      0.040895
     72 N7         -7.5540   -2.1900    1.3760 n         1 MOL     -0.508509
     73 C23        -8.3650   -1.0160    1.8090 c3        1 MOL     -0.036657
     74 C24        -7.6340    0.3690    1.9880 c         1 MOL      0.464839
     75 O13        -8.0150    1.1250    2.8880 o         1 MOL     -0.538256
     76 H32        -7.0100   -2.5980    2.1210 hn        1 MOL      0.272409
     77 H33        -8.8880   -1.1670    2.7520 h1        1 MOL      0.105900
     78 H34        -9.1630   -0.9790    1.0610 h1        1 MOL      0.105900
     79 N8         -6.5720    0.6890    1.2170 n         1 MOL     -0.429223
     80 C25        -5.7330    1.8830    1.2900 c3        1 MOL      0.090326
     81 C26        -5.0440    2.1060   -0.1330 c         1 MOL      0.653625
     82 O14        -4.8310    1.2000   -0.9430 o         1 MOL     -0.483953
     83 C27        -4.6090    1.6200    2.3940 c3        1 MOL      0.389598
     84 C28        -3.6940    2.8170    2.6890 c3        1 MOL     -0.447644
     85 O15        -3.7490    0.5730    1.9020 oh        1 MOL     -0.627814
     86 H35        -6.4890    0.0660    0.4330 hn        1 MOL      0.226869
     87 H36        -6.2600    2.7840    1.6040 h1        1 MOL      0.053711
     88 H37        -5.1300    1.3430    3.3130 h1        1 MOL      0.004411
     89 H38        -4.2050   -0.2510    2.0740 ho        1 MOL      0.326316
     90 H39        -4.3750    3.4520    3.2640 hc        1 MOL      0.109359
     91 H40        -2.7850    2.4760    3.1710 hc        1 MOL      0.109359
     92 H41        -3.5760    3.3820    1.7700 hc        1 MOL      0.109359
     93 N9         -4.7790    3.3760   -0.4780 n         1 MOL     -0.464044
     94 C29        -4.7520    3.8820   -1.8710 c3        1 MOL     -0.346533
     95 C30        -3.4790    4.7690   -2.0670 c         1 MOL      0.557347
     96 O16        -3.4380    5.4950   -3.0960 o         1 MOL     -0.536264
     97 C31        -6.0000    4.5890   -2.4120 c3        1 MOL      0.377853
     98 C32        -6.2870    5.8900   -1.6910 c3        1 MOL      0.059682
     99 C33        -7.2410    3.7150   -2.2000 c3        1 MOL     -0.430951
    100 C34        -7.2460    6.8090   -2.4380 c3        1 MOL     -0.121970
    101 H42        -4.7930    4.0720    0.2590 hn        1 MOL      0.210393
    102 H43        -4.5680    3.0320   -2.5300 h1        1 MOL      0.175297
    103 H44        -5.7890    4.8130   -3.4600 hc        1 MOL     -0.001722
    104 H45        -5.3830    6.4860   -1.6160 hc        1 MOL     -0.005082
    105 H46        -6.8190    5.7830   -0.7360 hc        1 MOL     -0.005082
    106 H47        -8.0150    4.1320   -2.8500 hc        1 MOL      0.102200
    107 H48        -7.0180    2.6650   -2.3910 hc        1 MOL      0.102200
    108 H49        -7.4590    3.6960   -1.1300 hc        1 MOL      0.102200
    109 H50        -7.5320    7.7130   -1.9000 hc        1 MOL      0.020226
    110 H51        -6.7920    7.0870   -3.3920 hc        1 MOL      0.020226
    111 H52        -8.0880    6.1710   -2.7320 hc        1 MOL      0.020226
    112 N10        -2.4690    4.6470   -1.2120 n         1 MOL     -0.234515
    113 C35        -1.1790    5.2100   -1.5060 c3        1 MOL     -0.104228
    114 C36        -0.0530    4.1880   -1.2560 c         1 MOL      0.695541
    115 O17        -0.4480    3.1120   -0.7270 o         1 MOL     -0.547639
    116 C37        -0.9090    6.4550   -0.7230 c3        1 MOL      0.219131
    117 C38        -0.8300    6.2800    0.7600 c3        1 MOL     -0.470654
    118 O18        -1.9370    7.4170   -0.9750 oh        1 MOL     -0.574211
    119 H53        -2.4260    3.9380   -0.4990 hn        1 MOL      0.233118
    120 H54        -1.0670    5.4710   -2.5590 h1        1 MOL      0.091703
    121 H55        -0.0160    6.9800   -1.0730 h1        1 MOL      0.033311
    122 H56        -1.5080    8.2400   -0.7310 ho        1 MOL      0.397278
    123 H57        -0.8800    7.2970    1.1460 hc        1 MOL      0.137788
    124 H58        -1.7810    5.9360    1.1550 hc        1 MOL      0.137788
    125 H59        -0.0450    5.6110    1.1380 hc        1 MOL      0.137788
    126 N11         1.1930    4.3630   -1.7220 n         1 MOL     -0.671831
    127 C39         2.3110    3.3890   -1.7070 c3        1 MOL      0.244295
    128 C40         3.5520    3.8820   -0.9700 c         1 MOL      0.556132
    129 O19         3.6550    5.1130   -0.7660 o         1 MOL     -0.534877
    130 C41         2.5220    2.9580   -3.1390 c3        1 MOL      0.178048
    131 C42         1.3320    2.2860   -3.7690 c3        1 MOL     -0.165004
    132 O20         3.5760    2.0480   -3.3830 oh        1 MOL     -0.595508
    133 H60         1.2940    5.2340   -2.2210 hn        1 MOL      0.322519
    134 H61         2.0730    2.4820   -1.1480 h1        1 MOL      0.076102
    135 H62         2.6270    3.8650   -3.7260 h1        1 MOL     -0.003198
    136 H63         3.6020    1.9600   -4.3450 ho        1 MOL      0.360280
    137 H64         1.5550    1.9260   -4.7760 hc        1 MOL      0.055124
    138 H65         1.0610    1.3800   -3.2270 hc        1 MOL      0.055124
    139 H66         0.4500    2.9240   -3.9050 hc        1 MOL      0.055124
    140 N12         4.4570    2.9250   -0.7240 n         1 MOL     -0.563627
    141 C43         5.8650    3.1750   -0.3310 c3        1 MOL      0.053118
    142 C44         6.3930    2.5200    0.8670 c         1 MOL      0.523457
    143 O21         7.5200    2.7180    1.2910 o         1 MOL     -0.563779
    144 C45         6.6820    3.0110   -1.5710 c3        1 MOL      0.036566
    145 C46         6.9210    1.5550   -2.0540 c3        1 MOL      0.011849
    146 C47         7.6520    1.3940   -3.3030 c3        1 MOL     -0.038238
    147 C48         6.6600    1.8080   -4.4200 c3        1 MOL      0.132489
    148 N13         7.2450    2.0190   -5.7500 n4        1 MOL     -0.277480
    149 H67         4.2450    1.9760   -0.9780 hn        1 MOL      0.361576
    150 H68         5.8980    4.2330   -0.0670 h1        1 MOL      0.136717
    151 H69         7.6170    3.4940   -1.2890 hc        1 MOL     -0.014621
    152 H70         6.2280    3.6290   -2.3480 hc        1 MOL     -0.014621
    153 H71         5.9790    1.0250   -2.0950 hc        1 MOL      0.026226
    154 H72         7.4700    1.0790   -1.2370 hc        1 MOL      0.026226
    155 H73         7.9530    0.3590   -3.4590 hc        1 MOL      0.034994
    156 H74         8.5530    1.9950   -3.3730 hc        1 MOL      0.034994
    157 H75         6.2330    2.7590   -4.1030 hx        1 MOL      0.036107
    158 H76         5.8920    1.0340   -4.4540 hx        1 MOL      0.036107
    159 H77         6.6870    2.5740   -6.3850 hn        1 MOL      0.246297
    160 H78         8.1020    2.5240   -5.5790 hn        1 MOL      0.246297
    161 H79         7.5430    1.1680   -6.2000 hn        1 MOL      0.246297
    162 N14         5.5650    1.8380    1.6650 n         1 MOL     -0.282562
    163 C49         5.8630    1.0170    2.8690 c3        1 MOL     -0.029112
    164 C50         6.5100   -0.3590    2.4700 c         1 MOL      0.525971
    165 O22         6.0160   -0.9710    1.5340 o         1 MOL     -0.502594
    166 C51         4.5830    0.8600    3.7380 c3        1 MOL     -0.481571
    167 C52         4.3400    2.1400    4.4710 c3        1 MOL      0.083478
    168 C53         2.9810    2.2690    5.2110 c         1 MOL      0.630634
    169 O23         2.3700    1.2810    5.6520 o         1 MOL     -0.709509
    170 O24         2.5670    3.4640    5.2920 o         1 MOL     -0.709509
    171 H80         4.7460    1.5870    1.1170 hn        1 MOL      0.185057
    172 H81         6.5610    1.6210    3.4570 h1        1 MOL      0.104323
    173 H82         4.5980    0.0230    4.4420 hc        1 MOL      0.174339
    174 H83         3.7210    0.7180    3.0940 hc        1 MOL      0.174339
    175 H84         4.4530    2.9560    3.7640 hc        1 MOL      0.008062
    176 H85         5.1010    2.3930    5.2120 hc        1 MOL      0.008062
    177 N15         7.5880   -0.7420    3.1790 n         1 MOL     -0.365443
    178 C54         8.5550   -1.7720    2.8410 c3        1 MOL     -0.108482
    179 H86         8.8610   -2.2950    3.7480 h1        1 MOL      0.082591
    180 H87         8.1030   -2.4830    2.1480 h1        1 MOL      0.082591
    181 H88         9.4270   -1.3130    2.3740 h1        1 MOL      0.082591
    182 H89         7.9170   -0.0900    3.8700 hn        1 MOL      0.265150
    183 Ca1         0.5230   -0.3760    5.2270 Ca        1 MOL      1.807217
    184 O25         1.7920   -2.4000    3.8710 oh        1 MOL     -0.908216
    185 H90         1.4200   -3.2850    3.9150 ho        1 MOL      0.445932
    186 H91         1.8660   -2.2260    2.9350 ho        1 MOL      0.445932
    187 O26        -0.2590    2.1910    4.8380 oh        1 MOL     -0.908216
    188 H92        -0.1940    2.9560    5.4060 ho        1 MOL      0.445932
    189 H93        -0.3320    2.5490    3.9490 ho        1 MOL      0.445932
    190 O27         2.1420   -1.4710    6.9500 oh        1 MOL     -0.908216
    191 H94         1.7850   -1.4580    7.8420 ho        1 MOL      0.445932
    192 H95         2.9290   -2.0110    7.0120 ho        1 MOL      0.445932
    193 O28        -2.0860    0.0940    5.0430 oh        1 MOL     -0.908216
    194 H96        -2.2800    1.0160    4.9180 ho        1 MOL      0.445932
    195 H97        -2.7830   -0.3750    4.5710 ho        1 MOL      0.445932
@<TRIPOS>BOND
     1    1    2 1   
     2    1    4 1   
     3    1    5 1   
     4    1    6 1   
     5    2    3 2   
     6    2    7 1   
     7    7    8 1   
     8    7   15 1   
     9    8    9 1   
    10    8   11 1   
    11    8   16 1   
    12    9   10 2   
    13    9   19 1   
    14   11   12 1   
    15   11   17 1   
    16   11   18 1   
    17   12   13 1   
    18   12   14 1   
    19   19   20 1   
    20   19   28 1   
    21   20   21 1   
    22   20   23 1   
    23   20   29 1   
    24   21   22 2   
    25   21   41 1   
    26   23   24 1   
    27   23   30 1   
    28   23   31 1   
    29   24   25 1   
    30   24   32 1   
    31   24   33 1   
    32   25   26 1   
    33   25   34 1   
    34   25   35 1   
    35   26   27 1   
    36   26   36 1   
    37   26   37 1   
    38   27   38 1   
    39   27   39 1   
    40   27   40 1   
    41   41   42 1   
    42   41   49 1   
    43   42   43 1   
    44   42   45 1   
    45   42   50 1   
    46   43   44 2   
    47   43   53 1   
    48   45   46 1   
    49   45   51 1   
    50   45   52 1   
    51   46   47 1   
    52   46   48 1   
    53   53   54 1   
    54   53   57 1   
    55   54   55 1   
    56   54   58 1   
    57   54   59 1   
    58   55   56 2   
    59   55   60 1   
    60   60   61 1   
    61   60   68 1   
    62   61   62 1   
    63   61   64 1   
    64   61   69 1   
    65   62   63 2   
    66   62   72 1   
    67   64   65 1   
    68   64   70 1   
    69   64   71 1   
    70   65   66 1   
    71   65   67 1   
    72   72   73 1   
    73   72   76 1   
    74   73   74 1   
    75   73   77 1   
    76   73   78 1   
    77   74   75 2   
    78   74   79 1   
    79   79   80 1   
    80   79   86 1   
    81   80   81 1   
    82   80   83 1   
    83   80   87 1   
    84   81   82 2   
    85   81   93 1   
    86   83   84 1   
    87   83   85 1   
    88   83   88 1   
    89   84   90 1   
    90   84   91 1   
    91   84   92 1   
    92   85   89 1   
    93   93   94 1   
    94   93  101 1   
    95   94   95 1   
    96   94   97 1   
    97   94  102 1   
    98   95   96 2   
    99   95  112 1   
   100   97   98 1   
   101   97   99 1   
   102   97  103 1   
   103   98  100 1   
   104   98  104 1   
   105   98  105 1   
   106   99  106 1   
   107   99  107 1   
   108   99  108 1   
   109  100  109 1   
   110  100  110 1   
   111  100  111 1   
   112  112  113 1   
   113  112  119 1   
   114  113  114 1   
   115  113  116 1   
   116  113  120 1   
   117  114  115 2   
   118  114  126 1   
   119  116  117 1   
   120  116  118 1   
   121  116  121 1   
   122  117  123 1   
   123  117  124 1   
   124  117  125 1   
   125  118  122 1   
   126  126  127 1   
   127  126  133 1   
   128  127  128 1   
   129  127  130 1   
   130  127  134 1   
   131  128  129 2   
   132  128  140 1   
   133  130  131 1   
   134  130  132 1   
   135  130  135 1   
   136  131  137 1   
   137  131  138 1   
   138  131  139 1   
   139  132  136 1   
   140  140  141 1   
   141  140  149 1   
   142  141  142 1   
   143  141  144 1   
   144  141  150 1   
   145  142  143 2   
   146  142  162 1   
   147  144  145 1   
   148  144  151 1   
   149  144  152 1   
   150  145  146 1   
   151  145  153 1   
   152  145  154 1   
   153  146  147 1   
   154  146  155 1   
   155  146  156 1   
   156  147  148 1   
   157  147  157 1   
   158  147  158 1   
   159  148  159 1   
   160  148  160 1   
   161  148  161 1   
   162  162  163 1   
   163  162  171 1   
   164  163  164 1   
   165  163  166 1   
   166  163  172 1   
   167  164  165 2   
   168  164  177 1   
   169  166  167 1   
   170  166  173 1   
   171  166  174 1   
   172  167  168 1   
   173  167  175 1   
   174  167  176 1   
   175  168  169 1   
   176  168  170 1   
   177  177  178 1   
   178  177  182 1   
   179  178  179 1   
   180  178  180 1   
   181  178  181 1   
   182  184  185 1   
   183  184  186 1   
   184  187  188 1   
   185  187  189 1   
   186  190  191 1   
   187  190  192 1   
   188  193  194 1   
   189  193  195 1   
@<TRIPOS>SUBSTRUCTURE
     1 MOL         1 TEMP              0 ****  ****    0 ROOT
