@<TRIPOS>MOLECULE
MOL
  179   176     1     0     0
SMALL
resp


@<TRIPOS>ATOM
      1 C1          1.5660   -4.2600    5.8240 c3        1 MOL     -0.430729
      2 C2          1.7180   -4.0870    4.3050 c         1 MOL      0.765396
      3 O1          0.8900   -4.4430    3.4880 o         1 MOL     -0.590291
      4 H1          2.3620   -3.7170    6.3330 hc        1 MOL      0.120959
      5 H2          0.5990   -3.8680    6.1400 hc        1 MOL      0.120959
      6 H3          1.6290   -5.3180    6.0770 hc        1 MOL      0.120959
      7 N1          2.8580   -3.5550    3.9020 n         1 MOL     -0.549724
      8 C3          3.1460   -3.0980    2.5680 c3        1 MOL      0.009921
      9 C4          3.5970   -4.3180    1.6780 c         1 MOL      0.438566
     10 O2          4.1990   -5.3550    2.1000 o         1 MOL     -0.534009
     11 C5          4.0680   -1.9150    2.5450 c3        1 MOL      0.322618
     12 C6          3.8700   -1.0210    1.2360 c         1 MOL      0.103198
     13 O3          3.8600    0.2280    1.4180 o         1 MOL     -0.564287
     14 O4          3.6320   -1.5370    0.1290 o         1 MOL     -0.564287
     15 H4          3.5350   -3.3500    4.6240 hn        1 MOL      0.299181
     16 H5          2.1750   -2.8270    2.1660 h1        1 MOL     -0.020357
     17 H6          5.0910   -2.2300    2.7510 hc        1 MOL     -0.021830
     18 H7          3.7930   -1.3090    3.4060 hc        1 MOL     -0.021830
     19 N2          3.2800   -4.2010    0.3690 n         1 MOL     -0.123369
     20 C7          3.5380   -5.1930   -0.6690 c3        1 MOL     -0.112667
     21 C8          4.6760   -4.7890   -1.6030 c         1 MOL      0.394368
     22 O5          5.2900   -5.5940   -2.3600 o         1 MOL     -0.532426
     23 C9          2.2370   -5.3410   -1.4220 c3        1 MOL      0.124115
     24 C10         1.0620   -5.8430   -0.6600 c3        1 MOL     -0.034832
     25 C11         0.1320   -6.4850   -1.6180 c3        1 MOL     -0.013852
     26 C12        -0.5490   -5.5300   -2.6480 c3        1 MOL      0.286665
     27 N3         -1.2530   -6.2520   -3.7190 n4        1 MOL     -0.371055
     28 H8          2.7590   -3.3560    0.1520 hn        1 MOL      0.231945
     29 H9          3.7960   -6.1620   -0.2540 h1        1 MOL      0.130226
     30 H10         2.4060   -6.0370   -2.2390 hc        1 MOL     -0.013150
     31 H11         2.0450   -4.4140   -1.9770 hc        1 MOL     -0.013150
     32 H12         0.6300   -5.1840    0.1020 hc        1 MOL      0.028951
     33 H13         1.5970   -6.6310   -0.1350 hc        1 MOL      0.028951
     34 H14        -0.6980   -6.9670   -1.1010 hc        1 MOL      0.010915
     35 H15         0.6000   -7.2970   -2.1850 hc        1 MOL      0.010915
     36 H16         0.2530   -4.9480   -3.0870 hx        1 MOL     -0.022555
     37 H17        -1.1500   -4.7600   -2.1440 hx        1 MOL     -0.022555
     38 H18        -2.1900   -6.5820   -3.5420 hn        1 MOL      0.299528
     39 H19        -1.4290   -5.5800   -4.4500 hn        1 MOL      0.299528
     40 H20        -0.6080   -6.9010   -4.1330 hn        1 MOL      0.299528
     41 N4          4.8970   -3.4630   -1.7430 n         1 MOL     -0.027828
     42 C13         6.0560   -2.7550   -2.3640 c3        1 MOL     -0.008181
     43 C14         6.9870   -1.9010   -1.4660 c         1 MOL      0.318382
     44 O6          8.1980   -1.7430   -1.7440 o         1 MOL     -0.488082
     45 C15         5.5990   -1.7920   -3.3880 c3        1 MOL     -0.102776
     46 C16         4.5020   -0.8770   -2.8320 c         1 MOL      0.684490
     47 O7          3.2600   -1.1530   -2.9050 o         1 MOL     -0.775504
     48 O8          4.9120    0.0220   -2.0100 o         1 MOL     -0.775504
     49 H21         4.3570   -2.7850   -1.2320 hn        1 MOL     -0.035816
     50 H22         6.6770   -3.5290   -2.7970 h1        1 MOL      0.117381
     51 H23         5.2420   -2.4160   -4.2100 hc        1 MOL      0.041553
     52 H24         6.4000   -1.1570   -3.7700 hc        1 MOL      0.041553
     53 N5          6.5480   -1.5610   -0.2490 n         1 MOL     -0.014618
     54 C17         7.3030   -0.8360    0.7910 c3        1 MOL     -0.254148
     55 C18         7.5130    0.6890    0.5290 c         1 MOL      0.646833
     56 O9          8.4750    1.2360    1.0150 o         1 MOL     -0.551971
     57 H25         5.5890   -1.8270   -0.0630 hn        1 MOL      0.045830
     58 H26         8.2660   -1.3300    0.9250 h1        1 MOL      0.117546
     59 H27         6.7910   -0.8280    1.7540 h1        1 MOL      0.117546
     60 N6          6.6440    1.3470   -0.2430 n         1 MOL     -0.440534
     61 C19         6.7200    2.7810   -0.5580 c3        1 MOL     -0.042980
     62 C20         5.2990    3.3900   -0.4930 c         1 MOL      0.609571
     63 O10         4.2940    2.6400   -0.6050 o         1 MOL     -0.682127
     64 C21         7.1350    2.8800   -2.0660 c3        1 MOL     -0.210355
     65 C22         8.4920    2.3310   -2.4710 c         1 MOL      0.582381
     66 N7          8.5930    1.4920   -3.4330 n         1 MOL     -0.635209
     67 O11         9.4920    2.6570   -1.8670 o         1 MOL     -0.510512
     68 H28         5.8880    0.8680   -0.7240 hn        1 MOL      0.501177
     69 H29         7.3810    3.3240    0.1110 h1        1 MOL      0.082737
     70 H30         7.0830    3.9300   -2.3270 hc        1 MOL      0.027317
     71 H31         6.3840    2.2870   -2.5990 hc        1 MOL      0.027317
     72 H32         7.7290    1.3020   -3.9120 hn        1 MOL      0.329243
     73 H33         9.5050    1.4090   -3.8540 hn        1 MOL      0.329243
     74 N8          5.3460    4.7080   -0.3670 n         1 MOL     -0.317811
     75 C23         4.2670    5.6200   -0.1020 c3        1 MOL     -0.159256
     76 C24         3.0060    5.1460    0.7350 c         1 MOL      0.685650
     77 O12         3.0650    4.7840    1.8890 o         1 MOL     -0.523483
     78 H34         6.2870    5.0140   -0.1400 hn        1 MOL      0.311487
     79 H35         3.8750    6.0400   -1.0220 h1        1 MOL      0.089743
     80 H36         4.6990    6.4700    0.4520 h1        1 MOL      0.089743
     81 N9          1.8520    5.1650    0.0580 n         1 MOL     -0.687265
     82 C25         0.5880    4.8170    0.7700 c3        1 MOL      0.102165
     83 C26         0.6480    3.3060    1.1200 c         1 MOL      0.819185
     84 O13         1.2630    2.5690    0.3490 o         1 MOL     -0.673452
     85 C27        -0.7550    5.2140    0.0190 c3        1 MOL     -0.328922
     86 C28        -0.9950    6.6990   -0.3310 ca        1 MOL      0.207039
     87 C29        -0.8910    7.6600    0.7380 ca        1 MOL     -0.261708
     88 C30        -1.3920    7.1570   -1.6360 ca        1 MOL     -0.261708
     89 C31        -1.2210    8.9880    0.4570 ca        1 MOL     -0.145793
     90 C32        -1.7300    8.5130   -1.8820 ca        1 MOL     -0.145793
     91 C33        -1.6660    9.3730   -0.7640 ca        1 MOL      0.223374
     92 O14        -2.2200   10.5660   -0.9400 oh        1 MOL     -0.442723
     93 H37         1.8820    5.1890   -0.9450 hn        1 MOL      0.363000
     94 H38         0.5760    5.3260    1.7300 h1        1 MOL      0.078369
     95 H39        -1.5690    4.8840    0.6720 hc        1 MOL      0.113539
     96 H40        -0.7540    4.6500   -0.9110 hc        1 MOL      0.113539
     97 H41        -0.6020    7.4470    1.7520 ha        1 MOL      0.157872
     98 H42        -1.4730    6.4370   -2.4460 ha        1 MOL      0.157872
     99 H43        -1.0970    9.7280    1.2270 ha        1 MOL      0.136410
    100 H44        -2.0060    8.9010   -2.8470 ha        1 MOL      0.136410
    101 H45        -2.1950   11.2040   -0.2230 ho        1 MOL      0.364866
    102 N10        -0.0160    2.8470    2.1780 n         1 MOL     -0.775245
    103 C34        -0.0780    1.4360    2.7400 c3        1 MOL      0.270407
    104 C35        -0.2740    0.3490    1.6960 c         1 MOL      0.156314
    105 O15         0.6690    0.0380    0.9370 o         1 MOL     -0.204029
    106 C36         1.0930    1.1090    3.6960 c3        1 MOL      0.260138
    107 C37         0.9370   -0.3060    4.4170 c3        1 MOL     -0.027261
    108 C38         1.0600    2.1710    4.7470 c3        1 MOL     -0.395893
    109 C39        -0.3280   -0.7000    5.2440 c3        1 MOL     -0.259176
    110 H46        -0.4240    3.4760    2.8560 hn        1 MOL      0.348258
    111 H47        -1.0020    1.4420    3.3250 h1        1 MOL      0.029952
    112 H48         2.0130    1.1440    3.1110 hc        1 MOL      0.029274
    113 H49         1.8270   -0.4260    5.0290 hc        1 MOL      0.017195
    114 H50         1.0290   -1.1220    3.7020 hc        1 MOL      0.017195
    115 H51         0.0730    2.1390    5.2010 hc        1 MOL      0.094909
    116 H52         1.8460    1.8560    5.4410 hc        1 MOL      0.094909
    117 H53         1.3750    3.1120    4.3060 hc        1 MOL      0.094909
    118 H54        -0.3110   -0.1640    6.1890 hc        1 MOL      0.064425
    119 H55        -1.2180   -0.4920    4.6580 hc        1 MOL      0.064425
    120 H56        -0.2490   -1.7840    5.3540 hc        1 MOL      0.064425
    121 N11        -1.3930   -0.3610    1.6630 n         1 MOL     -0.271645
    122 C40        -1.5830   -1.4510    0.7400 c3        1 MOL     -0.026796
    123 C41        -3.0200   -1.7260    0.3720 c         1 MOL      0.533054
    124 O16        -3.3160   -2.5950   -0.3930 o         1 MOL     -0.510708
    125 C42        -0.9100   -2.7000    1.3210 c3        1 MOL      0.169274
    126 O17        -1.6570   -3.0260    2.5110 oh        1 MOL     -0.591012
    127 H57        -2.0600   -0.2330    2.4080 hn        1 MOL      0.273276
    128 H58        -1.1180   -1.2430   -0.2180 h1        1 MOL      0.072460
    129 H59         0.0990   -2.4220    1.6610 h1        1 MOL      0.046864
    130 H60        -0.8890   -3.5220    0.6140 h1        1 MOL      0.046864
    131 H61        -1.0640   -3.5830    3.0140 ho        1 MOL      0.374196
    132 N12        -3.9090   -0.8350    0.8400 n         1 MOL     -0.511162
    133 C43        -5.2960   -0.9840    0.3540 c3        1 MOL      0.169300
    134 C44        -5.4210   -0.5660   -1.2000 c         1 MOL      0.483324
    135 O18        -4.6370    0.1560   -1.8440 o         1 MOL     -0.560894
    136 C45        -6.1260   -0.1480    1.3210 c3        1 MOL     -0.213578
    137 H62        -3.6170    0.0620    1.1770 hn        1 MOL      0.254045
    138 H63        -5.6850   -2.0020    0.4340 h1        1 MOL      0.125137
    139 H64        -5.6910    0.8100    1.5720 hc        1 MOL      0.064027
    140 H65        -7.1810   -0.1160    1.0350 hc        1 MOL      0.064027
    141 H66        -6.1260   -0.7440    2.2410 hc        1 MOL      0.064027
    142 N13        -6.4770   -0.9680   -1.9220 n         1 MOL     -0.462088
    143 C46        -7.5690   -1.7870   -1.4710 c3        1 MOL      0.059483
    144 C47        -8.9190   -1.3500   -2.1320 c         1 MOL      0.421830
    145 O19        -8.9830   -1.1860   -3.3470 o         1 MOL     -0.522242
    146 C48        -7.2350   -3.3220   -1.8040 c3        1 MOL     -0.093495
    147 H67        -6.5250   -0.6350   -2.8770 hn        1 MOL      0.320384
    148 H68        -7.5860   -1.6710   -0.3890 h1        1 MOL      0.040983
    149 H69        -6.4350   -3.6090   -1.1210 hc        1 MOL      0.034331
    150 H70        -8.0630   -4.0190   -1.7030 hc        1 MOL      0.034331
    151 H71        -6.8880   -3.5800   -2.8000 hc        1 MOL      0.034331
    152 N14       -10.0500   -1.1340   -1.4070 n         1 MOL     -0.257943
    153 C49       -10.3150   -1.3040    0.0250 c3        1 MOL     -0.167688
    154 C50        -9.9460   -0.1680    0.9890 c         1 MOL      0.575963
    155 O20        -9.6050   -0.4900    2.1620 o         1 MOL     -0.580665
    156 C51       -11.8350   -1.5550    0.1300 c3        1 MOL     -0.060056
    157 C52       -12.8290   -0.4290   -0.0170 c3        1 MOL     -0.056454
    158 C53       -13.0510    0.2270   -1.3870 c         1 MOL      0.633152
    159 O21       -12.0810    0.7630   -1.9210 o         1 MOL     -0.648202
    160 O22       -14.2000    0.2420   -1.9430 o         1 MOL     -0.648202
    161 H72       -10.7720   -0.6740   -1.9480 hn        1 MOL      0.260358
    162 H73        -9.8480   -2.2340    0.3590 h1        1 MOL      0.078081
    163 H74       -12.0530   -1.9790    1.1110 hc        1 MOL      0.041887
    164 H75       -12.0910   -2.2400   -0.6790 hc        1 MOL      0.041887
    165 H76       -12.5660    0.3130    0.7250 hc        1 MOL      0.000672
    166 H77       -13.7920   -0.7600    0.3800 hc        1 MOL      0.000672
    167 N15       -10.0240    1.1060    0.6730 n         1 MOL     -0.230421
    168 C54        -9.4100    2.2080    1.5020 c3        1 MOL     -0.176586
    169 H78        -8.3330    2.2330    1.3300 h1        1 MOL      0.092261
    170 H79        -9.8450    3.1650    1.2160 h1        1 MOL      0.092261
    171 H80        -9.6040    2.0200    2.5590 h1        1 MOL      0.092261
    172 H81       -10.3300    1.3590   -0.2540 hn        1 MOL      0.202802
    173 Ca1         2.4980    0.7170   -1.0510 Ca        1 MOL      1.803270
    174 O23         0.3020    0.7080   -2.2850 oh        1 MOL     -0.971167
    175 H82        -0.4940    1.2450   -2.2070 ho        1 MOL      0.457306
    176 H83         0.1880    0.2240   -3.0970 ho        1 MOL      0.457306
    177 O24         1.1520   -2.0350   -1.7250 oh        1 MOL     -0.971167
    178 H84         1.8120   -1.7340   -2.3400 ho        1 MOL      0.457306
    179 H85         0.3670   -2.1550   -2.2580 ho        1 MOL      0.457306
@<TRIPOS>BOND
     1    1    2 1   
     2    1    4 1   
     3    1    5 1   
     4    1    6 1   
     5    2    3 2   
     6    2    7 1   
     7    7    8 1   
     8    7   15 1   
     9    8    9 1   
    10    8   11 1   
    11    8   16 1   
    12    9   10 2   
    13    9   19 1   
    14   11   12 1   
    15   11   17 1   
    16   11   18 1   
    17   12   13 1   
    18   12   14 1   
    19   19   20 1   
    20   19   28 1   
    21   20   21 1   
    22   20   23 1   
    23   20   29 1   
    24   21   22 2   
    25   21   41 1   
    26   23   24 1   
    27   23   30 1   
    28   23   31 1   
    29   24   25 1   
    30   24   32 1   
    31   24   33 1   
    32   25   26 1   
    33   25   34 1   
    34   25   35 1   
    35   26   27 1   
    36   26   36 1   
    37   26   37 1   
    38   27   38 1   
    39   27   39 1   
    40   27   40 1   
    41   41   42 1   
    42   41   49 1   
    43   42   43 1   
    44   42   45 1   
    45   42   50 1   
    46   43   44 2   
    47   43   53 1   
    48   45   46 1   
    49   45   51 1   
    50   45   52 1   
    51   46   47 1   
    52   46   48 1   
    53   53   54 1   
    54   53   57 1   
    55   54   55 1   
    56   54   58 1   
    57   54   59 1   
    58   55   56 2   
    59   55   60 1   
    60   60   61 1   
    61   60   68 1   
    62   61   62 1   
    63   61   64 1   
    64   61   69 1   
    65   62   63 2   
    66   62   74 1   
    67   64   65 1   
    68   64   70 1   
    69   64   71 1   
    70   65   66 1   
    71   65   67 2   
    72   66   72 1   
    73   66   73 1   
    74   74   75 1   
    75   74   78 1   
    76   75   76 1   
    77   75   79 1   
    78   75   80 1   
    79   76   77 2   
    80   76   81 1   
    81   81   82 1   
    82   81   93 1   
    83   82   83 1   
    84   82   85 1   
    85   82   94 1   
    86   83   84 2   
    87   83  102 1   
    88   85   86 1   
    89   85   95 1   
    90   85   96 1   
    91   86   87 ar  
    92   86   88 ar  
    93   87   89 ar  
    94   87   97 1   
    95   88   90 ar  
    96   88   98 1   
    97   89   91 ar  
    98   89   99 1   
    99   90   91 ar  
   100   90  100 1   
   101   91   92 1   
   102   92  101 1   
   103  102  103 1   
   104  102  110 1   
   105  103  104 1   
   106  103  106 1   
   107  103  111 1   
   108  104  105 2   
   109  104  121 1   
   110  106  107 1   
   111  106  108 1   
   112  106  112 1   
   113  107  109 1   
   114  107  113 1   
   115  107  114 1   
   116  108  115 1   
   117  108  116 1   
   118  108  117 1   
   119  109  118 1   
   120  109  119 1   
   121  109  120 1   
   122  121  122 1   
   123  121  127 1   
   124  122  123 1   
   125  122  125 1   
   126  122  128 1   
   127  123  124 2   
   128  123  132 1   
   129  125  126 1   
   130  125  129 1   
   131  125  130 1   
   132  126  131 1   
   133  132  133 1   
   134  132  137 1   
   135  133  134 1   
   136  133  136 1   
   137  133  138 1   
   138  134  135 2   
   139  134  142 1   
   140  136  139 1   
   141  136  140 1   
   142  136  141 1   
   143  142  143 1   
   144  142  147 1   
   145  143  144 1   
   146  143  146 1   
   147  143  148 1   
   148  144  145 2   
   149  144  152 1   
   150  146  149 1   
   151  146  150 1   
   152  146  151 1   
   153  152  153 1   
   154  152  161 1   
   155  153  154 1   
   156  153  156 1   
   157  153  162 1   
   158  154  155 2   
   159  154  167 1   
   160  156  157 1   
   161  156  163 1   
   162  156  164 1   
   163  157  158 1   
   164  157  165 1   
   165  157  166 1   
   166  158  159 1   
   167  158  160 1   
   168  167  168 1   
   169  167  172 1   
   170  168  169 1   
   171  168  170 1   
   172  168  171 1   
   173  174  175 1   
   174  174  176 1   
   175  177  178 1   
   176  177  179 1   
@<TRIPOS>SUBSTRUCTURE
     1 MOL         1 TEMP              0 ****  ****    0 ROOT
