@<TRIPOS>MOLECULE
MOL
  186   183     1     0     0
SMALL
resp


@<TRIPOS>ATOM
      1 C1         -4.6590   -5.5570    3.5240 c3        1 MOL     -0.293653
      2 C2         -4.5660   -4.6170    2.3080 c         1 MOL      0.681647
      3 O1         -4.4530   -5.0670    1.1510 o         1 MOL     -0.561847
      4 H1         -3.6550   -5.8380    3.8440 hc        1 MOL      0.077218
      5 H2         -5.1700   -5.0470    4.3410 hc        1 MOL      0.077218
      6 H3         -5.2160   -6.4530    3.2500 hc        1 MOL      0.077218
      7 N1         -4.6770   -3.2610    2.5090 n         1 MOL     -0.550097
      8 C3         -4.4850   -2.1850    1.4800 c3        1 MOL     -0.039168
      9 C4         -3.0460   -1.7410    1.2750 c         1 MOL      0.515265
     10 O2         -2.7370   -1.0540    0.2720 o         1 MOL     -0.530130
     11 C5         -5.5020   -1.0530    1.7380 c3        1 MOL     -0.130299
     12 C6         -5.6280   -0.4740    3.1190 c         1 MOL      0.703893
     13 O3         -5.4990    0.7520    3.2900 o         1 MOL     -0.710944
     14 O4         -5.7620   -1.2630    4.1060 o         1 MOL     -0.710944
     15 H4         -4.8680   -2.9010    3.4380 hn        1 MOL      0.294384
     16 H5         -4.7160   -2.5970    0.4980 h1        1 MOL      0.152778
     17 H6         -6.4940   -1.4040    1.4390 hc        1 MOL      0.046354
     18 H7         -5.1380   -0.2350    1.1050 hc        1 MOL      0.046354
     19 N2         -2.2060   -2.1000    2.1870 n         1 MOL     -0.252828
     20 C7         -0.8030   -1.7950    2.1120 c3        1 MOL     -0.269025
     21 C8         -0.0100   -2.7650    1.1610 c         1 MOL      0.799617
     22 O5         -0.3780   -3.9310    1.1870 o         1 MOL     -0.547563
     23 C9         -0.1700   -1.7340    3.5650 c3        1 MOL     -0.159764
     24 C10        -0.3690   -0.3610    4.3570 c3        1 MOL     -0.026856
     25 C11        -1.8220   -0.0480    4.3190 c3        1 MOL      0.121348
     26 C12        -2.1770    1.1270    5.2700 c3        1 MOL      0.109777
     27 N3         -3.6440    1.1830    5.4410 n4        1 MOL     -0.588019
     28 H8         -2.5870   -2.5850    2.9830 hn        1 MOL      0.234200
     29 H9         -0.6440   -0.8240    1.6450 h1        1 MOL      0.195963
     30 H10         0.8930   -1.9620    3.4950 hc        1 MOL      0.077666
     31 H11        -0.6060   -2.5030    4.2020 hc        1 MOL      0.077666
     32 H12         0.2330    0.4120    3.8920 hc        1 MOL      0.017255
     33 H13         0.0340   -0.5180    5.3620 hc        1 MOL      0.017255
     34 H14        -2.3390   -0.9640    4.6070 hc        1 MOL      0.002976
     35 H15        -2.0500    0.2570    3.2990 hc        1 MOL      0.002976
     36 H16        -1.8080    2.0920    4.9230 hx        1 MOL      0.035281
     37 H17        -1.6790    0.9350    6.2160 hx        1 MOL      0.035281
     38 H18        -3.7770    0.5280    6.1990 hn        1 MOL      0.359086
     39 H19        -3.8750    2.0860    5.8370 hn        1 MOL      0.359086
     40 H20        -4.2160    0.9830    4.6280 hn        1 MOL      0.359086
     41 N4          1.0500   -2.3830    0.4610 n         1 MOL     -0.664040
     42 C13         1.7030   -1.0880    0.1370 c3        1 MOL     -0.014255
     43 C14         1.9030   -0.0940    1.3760 c         1 MOL      0.449128
     44 O6          1.2340    0.9610    1.4270 o         1 MOL     -0.506008
     45 C15         1.1570   -0.3960   -1.1620 c3        1 MOL     -0.090611
     46 C16         1.1070   -1.3690   -2.3520 c         1 MOL      0.982219
     47 O7          1.7700   -2.4300   -2.3700 o         1 MOL     -0.830532
     48 O8          0.4930   -1.0660   -3.4220 o         1 MOL     -0.830532
     49 H21         1.3270   -3.1510   -0.1260 hn        1 MOL      0.313585
     50 H22         2.7540   -1.2900   -0.0790 h1        1 MOL      0.112984
     51 H23         1.9100    0.3750   -1.3700 hc        1 MOL     -0.023355
     52 H24         0.1800    0.0340   -0.9580 hc        1 MOL     -0.023355
     53 N5          2.7530   -0.3330    2.4030 n         1 MOL     -0.304910
     54 C17         3.8230   -1.3500    2.3520 c3        1 MOL     -0.001487
     55 C18         4.9330   -1.0060    3.3040 c         1 MOL      0.494962
     56 O9          4.8270   -0.1500    4.2080 o         1 MOL     -0.538746
     57 H25         2.8840    0.3640    3.1270 hn        1 MOL      0.257906
     58 H26         4.2200   -1.6700    1.3920 h1        1 MOL      0.063290
     59 H27         3.3720   -2.2880    2.6780 h1        1 MOL      0.063290
     60 N6          6.1420   -1.5400    3.1140 n         1 MOL     -0.424536
     61 C19         6.6000   -2.4550    2.0620 c3        1 MOL      0.011992
     62 C20         7.2870   -1.7090    0.8910 c         1 MOL      0.463059
     63 O10         7.8160   -0.6300    1.1060 o         1 MOL     -0.430125
     64 C21         7.5510   -3.5440    2.5710 c3        1 MOL     -0.158082
     65 C22         8.7030   -2.9380    3.3590 c         1 MOL      0.743717
     66 O11         9.8660   -3.1030    2.9810 o         1 MOL     -0.635448
     67 O12         8.5420   -2.4520    4.5090 o         1 MOL     -0.635448
     68 H28         6.8410   -1.2150    3.7630 hn        1 MOL      0.296602
     69 H29         5.7280   -2.9500    1.6350 h1        1 MOL      0.027278
     70 H30         7.8680   -4.1060    1.7000 hc        1 MOL      0.025701
     71 H31         7.0030   -4.2520    3.1950 hc        1 MOL      0.025701
     72 N7          7.3140   -2.3480   -0.2780 n         1 MOL     -0.253034
     73 C23         7.9800   -1.8920   -1.4620 c3        1 MOL     -0.241675
     74 C24         7.4620   -0.5500   -1.9870 c         1 MOL      0.454090
     75 O13         8.2340    0.1970   -2.6170 o         1 MOL     -0.522479
     76 H32         6.9290   -3.2580   -0.4970 hn        1 MOL      0.248540
     77 H33         7.8170   -2.6220   -2.2560 h1        1 MOL      0.129208
     78 H34         9.0640   -1.8400   -1.3470 h1        1 MOL      0.129208
     79 N8          6.2460   -0.1850   -1.5380 n         1 MOL     -0.208855
     80 C25         5.4600    0.9970   -1.8690 c3        1 MOL      0.072970
     81 C26         4.7710    1.5320   -0.6390 c         1 MOL      0.327142
     82 O14         4.5430    0.7610    0.2650 o         1 MOL     -0.437310
     83 C27         4.5070    0.6700   -2.9900 c3        1 MOL      0.512114
     84 C28         5.2590    0.5120   -4.3310 c3        1 MOL     -0.541618
     85 O15         3.6750    1.7570   -3.3010 oh        1 MOL     -0.654265
     86 H35         5.6830   -0.8630   -1.0420 hn        1 MOL      0.077791
     87 H36         6.1120    1.8090   -2.1580 h1        1 MOL      0.058276
     88 H37         3.9830   -0.2670   -2.8340 h1        1 MOL     -0.056608
     89 H38         3.0470    1.3600   -3.9080 ho        1 MOL      0.392399
     90 H39         5.7690    1.4450   -4.5300 hc        1 MOL      0.123356
     91 H40         5.9100   -0.3680   -4.3090 hc        1 MOL      0.123356
     92 H41         4.5550    0.1370   -5.0820 hc        1 MOL      0.123356
     93 N9          4.4290    2.7890   -0.5200 n         1 MOL     -0.186451
     94 C29         3.6240    3.4290    0.5360 c3        1 MOL      0.019314
     95 C30         2.2190    3.9460    0.1620 c         1 MOL      0.390072
     96 O16         1.5690    4.6460    0.8870 o         1 MOL     -0.532722
     97 C31         4.5200    4.5510    1.1010 c3        1 MOL     -0.029549
     98 C32         5.0130    5.6270    0.0780 c3        1 MOL      0.328859
     99 C33         5.8490    4.1330    1.8660 c3        1 MOL     -0.190967
    100 C34         3.9570    6.2610   -0.8640 c3        1 MOL     -0.534261
    101 H42         4.6520    3.3220   -1.3550 hn        1 MOL      0.280127
    102 H43         3.4800    2.7360    1.3660 h1        1 MOL      0.120883
    103 H44         3.9660    5.1200    1.8480 hc        1 MOL      0.039414
    104 H45         5.7030    5.0830   -0.5810 hc        1 MOL     -0.074569
    105 H46         5.5150    6.4210    0.6340 hc        1 MOL     -0.074569
    106 H47         6.5280    4.9260    2.1660 hc        1 MOL      0.054259
    107 H48         5.6980    3.5110    2.7380 hc        1 MOL      0.054259
    108 H49         6.4520    3.5470    1.1730 hc        1 MOL      0.054259
    109 H50         4.4280    7.1740   -1.2220 hc        1 MOL      0.128194
    110 H51         3.6110    5.5710   -1.6250 hc        1 MOL      0.128194
    111 H52         3.0940    6.6260   -0.2960 hc        1 MOL      0.128194
    112 N10         1.7510    3.7020   -1.0750 n         1 MOL     -0.156528
    113 C35         0.5540    4.4450   -1.6280 c3        1 MOL      0.032529
    114 C36        -0.8300    3.9650   -1.0990 c         1 MOL      0.332042
    115 O17        -1.8520    4.5430   -1.4500 o         1 MOL     -0.520103
    116 C37         0.5440    4.3700   -3.1250 c3        1 MOL      0.230311
    117 C38         0.1940    3.0300   -3.7930 c3        1 MOL     -0.124673
    118 O18         1.7890    4.6850   -3.8180 oh        1 MOL     -0.650031
    119 H53         2.4800    3.4160   -1.6970 hn        1 MOL      0.153731
    120 H54         0.6680    5.4730   -1.2760 h1        1 MOL      0.106961
    121 H55        -0.2380    5.0850   -3.3620 h1        1 MOL      0.031915
    122 H56         1.7620    4.1880   -4.6470 ho        1 MOL      0.398819
    123 H57         0.1830    3.1060   -4.8810 hc        1 MOL      0.037350
    124 H58         0.8970    2.2620   -3.4690 hc        1 MOL      0.037350
    125 H59        -0.7550    2.7000   -3.3850 hc        1 MOL      0.037350
    126 N11        -0.7950    2.9840   -0.1880 n         1 MOL     -0.172971
    127 C39        -1.9760    2.2620    0.2750 c3        1 MOL      0.040996
    128 C40        -2.9530    1.8540   -0.8790 c         1 MOL      0.411250
    129 O19        -2.6830    1.8380   -2.0630 o         1 MOL     -0.462720
    130 C41        -2.7260    3.1580    1.3600 c3        1 MOL      0.282590
    131 C42        -1.7880    3.8070    2.4490 c3        1 MOL     -0.587041
    132 O20        -3.7020    2.4230    2.1020 oh        1 MOL     -0.528759
    133 H60         0.0930    2.6400    0.1590 hn        1 MOL      0.128575
    134 H61        -1.6690    1.3540    0.7870 h1        1 MOL      0.145299
    135 H62        -3.3450    3.8820    0.8200 h1        1 MOL     -0.014364
    136 H63        -4.3230    3.0880    2.4210 ho        1 MOL      0.375116
    137 H64        -1.3600    3.0000    3.0560 hc        1 MOL      0.158072
    138 H65        -0.9440    4.3170    1.9830 hc        1 MOL      0.158072
    139 H66        -2.3120    4.5480    3.0560 hc        1 MOL      0.158072
    140 N12        -4.1280    1.3970   -0.4910 n         1 MOL     -0.115984
    141 C43        -5.3450    1.3100   -1.3870 c3        1 MOL     -0.270156
    142 C44        -5.7430   -0.0240   -1.9380 c         1 MOL      0.454932
    143 O21        -6.7270   -0.1110   -2.6810 o         1 MOL     -0.581238
    144 C45        -6.5940    2.0010   -0.7230 c3        1 MOL     -0.015378
    145 C46        -6.4030    3.4330   -0.4860 c3        1 MOL     -0.047409
    146 C47        -7.5900    4.1180    0.1910 c3        1 MOL     -0.226554
    147 C48        -7.3250    5.5620    0.4570 c3        1 MOL      0.240029
    148 N13        -8.4640    6.2120    1.1510 n4        1 MOL     -0.330628
    149 H67        -4.2820    1.3420    0.5110 hn        1 MOL      0.176313
    150 H68        -5.1530    1.8840   -2.2910 h1        1 MOL      0.164223
    151 H69        -6.7490    1.6050    0.2730 hc        1 MOL      0.044725
    152 H70        -7.5370    1.9670   -1.2740 hc        1 MOL      0.044725
    153 H71        -6.2500    3.9080   -1.4630 hc        1 MOL      0.058538
    154 H72        -5.4700    3.6230    0.0400 hc        1 MOL      0.058538
    155 H73        -7.7410    3.6400    1.1580 hc        1 MOL      0.078925
    156 H74        -8.4500    4.0240   -0.4780 hc        1 MOL      0.078925
    157 H75        -7.0200    6.1830   -0.3910 hx        1 MOL      0.023745
    158 H76        -6.4650    5.5820    1.1250 hx        1 MOL      0.023745
    159 H77        -8.4090    7.2220    1.1940 hn        1 MOL      0.263906
    160 H78        -9.3340    6.0200    0.6780 hn        1 MOL      0.263906
    161 H79        -8.5150    5.7980    2.0740 hn        1 MOL      0.263906
    162 N14        -5.1110   -1.1110   -1.7120 n         1 MOL      0.059934
    163 C49        -5.4410   -2.4280   -2.3730 c3        1 MOL     -0.463671
    164 C50        -6.6520   -3.1910   -1.7760 c         1 MOL      0.473634
    165 O22        -6.4630   -3.7780   -0.7440 o         1 MOL     -0.445607
    166 C51        -4.2020   -3.2710   -2.4050 c3        1 MOL      0.226818
    167 C52        -3.0900   -2.7600   -3.4190 c3        1 MOL      0.014964
    168 C53        -1.8230   -3.6100   -3.6230 c         1 MOL      0.896670
    169 O23        -1.5620   -4.0460   -4.8140 o         1 MOL     -0.898414
    170 O24        -0.9680   -3.9460   -2.7580 o         1 MOL     -0.898414
    171 H80        -4.2880   -1.1060   -1.1290 hn        1 MOL      0.133237
    172 H81        -5.7470   -2.2620   -3.4070 h1        1 MOL      0.109432
    173 H82        -4.4350   -4.2630   -2.8080 hc        1 MOL      0.016939
    174 H83        -3.7570   -3.5060   -1.4340 hc        1 MOL      0.016939
    175 H84        -2.8630   -1.7420   -3.1090 hc        1 MOL     -0.017278
    176 H85        -3.4930   -2.7230   -4.4310 hc        1 MOL     -0.017278
    177 N15        -7.8630   -3.0650   -2.3010 n         1 MOL     -0.231313
    178 C54        -9.0700   -3.6820   -1.8090 c3        1 MOL     -0.256251
    179 H86        -9.8810   -3.5030   -2.5150 h1        1 MOL      0.108512
    180 H87        -8.9120   -4.7550   -1.7000 h1        1 MOL      0.108512
    181 H88        -9.3290   -3.2530   -0.8410 h1        1 MOL      0.108512
    182 H89        -8.0440   -2.4410   -3.0690 hn        1 MOL      0.266595
    183 Ca1         1.1570   -3.8690   -4.3000 Ca        1 MOL      1.736985
    184 O25         3.3060   -2.6620   -5.4240 oh        1 MOL     -0.945592
    185 H90         4.1880   -3.0120   -5.5710 ho        1 MOL      0.460320
    186 H91         3.2880   -1.8410   -5.9070 ho        1 MOL      0.460320
@<TRIPOS>BOND
     1    1    2 1   
     2    1    4 1   
     3    1    5 1   
     4    1    6 1   
     5    2    3 2   
     6    2    7 1   
     7    7    8 1   
     8    7   15 1   
     9    8    9 1   
    10    8   11 1   
    11    8   16 1   
    12    9   10 2   
    13    9   19 1   
    14   11   12 1   
    15   11   17 1   
    16   11   18 1   
    17   12   13 1   
    18   12   14 1   
    19   19   20 1   
    20   19   28 1   
    21   20   21 1   
    22   20   23 1   
    23   20   29 1   
    24   21   22 2   
    25   21   41 1   
    26   23   24 1   
    27   23   30 1   
    28   23   31 1   
    29   24   25 1   
    30   24   32 1   
    31   24   33 1   
    32   25   26 1   
    33   25   34 1   
    34   25   35 1   
    35   26   27 1   
    36   26   36 1   
    37   26   37 1   
    38   27   38 1   
    39   27   39 1   
    40   27   40 1   
    41   41   42 1   
    42   41   49 1   
    43   42   43 1   
    44   42   45 1   
    45   42   50 1   
    46   43   44 2   
    47   43   53 1   
    48   45   46 1   
    49   45   51 1   
    50   45   52 1   
    51   46   47 1   
    52   46   48 1   
    53   53   54 1   
    54   53   57 1   
    55   54   55 1   
    56   54   58 1   
    57   54   59 1   
    58   55   56 2   
    59   55   60 1   
    60   60   61 1   
    61   60   68 1   
    62   61   62 1   
    63   61   64 1   
    64   61   69 1   
    65   62   63 2   
    66   62   72 1   
    67   64   65 1   
    68   64   70 1   
    69   64   71 1   
    70   65   66 1   
    71   65   67 1   
    72   72   73 1   
    73   72   76 1   
    74   73   74 1   
    75   73   77 1   
    76   73   78 1   
    77   74   75 2   
    78   74   79 1   
    79   79   80 1   
    80   79   86 1   
    81   80   81 1   
    82   80   83 1   
    83   80   87 1   
    84   81   82 2   
    85   81   93 1   
    86   83   84 1   
    87   83   85 1   
    88   83   88 1   
    89   84   90 1   
    90   84   91 1   
    91   84   92 1   
    92   85   89 1   
    93   93   94 1   
    94   93  101 1   
    95   94   95 1   
    96   94   97 1   
    97   94  102 1   
    98   95   96 2   
    99   95  112 1   
   100   97   98 1   
   101   97   99 1   
   102   97  103 1   
   103   98  100 1   
   104   98  104 1   
   105   98  105 1   
   106   99  106 1   
   107   99  107 1   
   108   99  108 1   
   109  100  109 1   
   110  100  110 1   
   111  100  111 1   
   112  112  113 1   
   113  112  119 1   
   114  113  114 1   
   115  113  116 1   
   116  113  120 1   
   117  114  115 2   
   118  114  126 1   
   119  116  117 1   
   120  116  118 1   
   121  116  121 1   
   122  117  123 1   
   123  117  124 1   
   124  117  125 1   
   125  118  122 1   
   126  126  127 1   
   127  126  133 1   
   128  127  128 1   
   129  127  130 1   
   130  127  134 1   
   131  128  129 2   
   132  128  140 1   
   133  130  131 1   
   134  130  132 1   
   135  130  135 1   
   136  131  137 1   
   137  131  138 1   
   138  131  139 1   
   139  132  136 1   
   140  140  141 1   
   141  140  149 1   
   142  141  142 1   
   143  141  144 1   
   144  141  150 1   
   145  142  143 2   
   146  142  162 1   
   147  144  145 1   
   148  144  151 1   
   149  144  152 1   
   150  145  146 1   
   151  145  153 1   
   152  145  154 1   
   153  146  147 1   
   154  146  155 1   
   155  146  156 1   
   156  147  148 1   
   157  147  157 1   
   158  147  158 1   
   159  148  159 1   
   160  148  160 1   
   161  148  161 1   
   162  162  163 1   
   163  162  171 1   
   164  163  164 1   
   165  163  166 1   
   166  163  172 1   
   167  164  165 2   
   168  164  177 1   
   169  166  167 1   
   170  166  173 1   
   171  166  174 1   
   172  167  168 1   
   173  167  175 1   
   174  167  176 1   
   175  168  169 1   
   176  168  170 1   
   177  177  178 1   
   178  177  182 1   
   179  178  179 1   
   180  178  180 1   
   181  178  181 1   
   182  184  185 1   
   183  184  186 1   
@<TRIPOS>SUBSTRUCTURE
     1 MOL         1 TEMP              0 ****  ****    0 ROOT
