@<TRIPOS>MOLECULE
MOL
  198   191     1     0     0
SMALL
resp


@<TRIPOS>ATOM
      1 C1          6.8470   -4.0680    0.0880 c3        1 MOL     -0.455575
      2 C2          5.7360   -3.1180   -0.2820 c         1 MOL      0.709308
      3 O1          5.9220   -2.0720   -0.8220 o         1 MOL     -0.566755
      4 H1          6.4400   -5.0730    0.2040 hc        1 MOL      0.129903
      5 H2          7.6000   -4.0700   -0.7000 hc        1 MOL      0.129903
      6 H3          7.3010   -3.7500    1.0260 hc        1 MOL      0.129903
      7 N1          4.4260   -3.3800   -0.1630 n         1 MOL     -0.439618
      8 C3          3.7410   -4.3480    0.6620 c3        1 MOL      0.023669
      9 C4          3.1810   -5.5400   -0.1270 c         1 MOL      0.374972
     10 O2          3.2830   -6.7160    0.2480 o         1 MOL     -0.516052
     11 C5          2.6210   -3.6850    1.4410 c3        1 MOL     -0.205544
     12 C6          3.1760   -2.4350    2.1840 c         1 MOL      0.835756
     13 O3          3.6660   -2.6480    3.2900 o         1 MOL     -0.777386
     14 O4          2.9760   -1.2760    1.7270 o         1 MOL     -0.777386
     15 H4          3.8580   -2.6180   -0.5100 hn        1 MOL      0.266943
     16 H5          4.3540   -4.8080    1.4390 h1        1 MOL      0.057415
     17 H6          2.2300   -4.4160    2.1390 hc        1 MOL      0.090773
     18 H7          1.8540   -3.4350    0.7120 hc        1 MOL      0.090773
     19 N2          2.6170   -5.1960   -1.3610 n         1 MOL     -0.025080
     20 C7          2.0320   -6.1580   -2.2980 c3        1 MOL     -0.238546
     21 C8          0.6090   -6.5340   -2.0040 c         1 MOL      0.357368
     22 O5          0.0910   -7.6220   -2.3840 o         1 MOL     -0.546630
     23 C9          2.2370   -5.6850   -3.8050 c3        1 MOL      0.206326
     24 C10         1.6390   -4.2160   -3.8660 c3        1 MOL     -0.004021
     25 C11         3.7120   -5.7950   -4.1110 c3        1 MOL     -0.143366
     26 C12         1.1560   -3.7860   -5.2470 c3        1 MOL     -0.238496
     27 H8          2.5120   -4.2180   -1.5900 hn        1 MOL      0.015897
     28 H9          2.5240   -7.1360   -2.2390 h1        1 MOL      0.131699
     29 H10         1.7800   -6.3450   -4.5430 hc        1 MOL      0.001058
     30 H11         2.3610   -3.4440   -3.6130 hc        1 MOL      0.066533
     31 H12         0.7470   -4.1940   -3.2350 hc        1 MOL      0.066533
     32 H13         4.2490   -5.1330   -3.4280 hc        1 MOL      0.012886
     33 H14         4.0780   -6.8240   -4.0610 hc        1 MOL      0.012886
     34 H15         3.7810   -5.2960   -5.0800 hc        1 MOL      0.012886
     35 H16         0.8410   -2.7450   -5.2340 hc        1 MOL      0.047771
     36 H17         2.0150   -3.7810   -5.9130 hc        1 MOL      0.047771
     37 H18         0.4120   -4.4000   -5.7690 hc        1 MOL      0.047771
     38 N3         -0.1510   -5.7230   -1.2430 n         1 MOL      0.039569
     39 C13        -1.5490   -5.9330   -0.8520 c3        1 MOL     -0.056784
     40 C14        -1.9210   -5.2580    0.4400 c         1 MOL      0.484054
     41 O6         -1.1210   -4.4460    0.9760 o         1 MOL     -0.539929
     42 C15        -2.2480   -5.3110   -1.9560 c3        1 MOL     -0.085642
     43 C16        -3.6960   -5.6620   -1.9880 c         1 MOL      0.724282
     44 O7         -4.1080   -6.7560   -1.5550 o         1 MOL     -0.707293
     45 O8         -4.4660   -4.7470   -2.3530 o         1 MOL     -0.707293
     46 H19         0.1900   -4.8430   -0.8930 hn        1 MOL      0.004600
     47 H20        -1.7620   -7.0020   -0.7850 h1        1 MOL      0.044053
     48 H21        -1.8910   -5.6650   -2.9200 hc        1 MOL     -0.000174
     49 H22        -2.0890   -4.2370   -1.8690 hc        1 MOL     -0.000174
     50 N4         -3.0620   -5.6540    1.0260 n         1 MOL     -0.411604
     51 C17        -3.6720   -4.8490    2.1490 c3        1 MOL     -0.131814
     52 C18        -4.2970   -3.5460    1.6240 c         1 MOL      0.758762
     53 O9         -3.6980   -2.8380    0.8220 o         1 MOL     -0.621636
     54 H23        -3.6590   -6.2370    0.4590 hn        1 MOL      0.298448
     55 H24        -2.9660   -4.6700    2.9630 h1        1 MOL      0.093358
     56 H25        -4.4290   -5.4650    2.6210 h1        1 MOL      0.093358
     57 N5         -5.4630   -3.0910    2.1730 n         1 MOL     -0.618596
     58 C19        -6.1620   -1.8830    1.7960 c3        1 MOL      0.310214
     59 C20        -6.7420   -2.0530    0.3500 c         1 MOL      0.674081
     60 O10        -7.1360   -3.1490   -0.0300 o         1 MOL     -0.530044
     61 C21        -7.2400   -1.5070    2.7810 c3        1 MOL     -0.426994
     62 C22        -8.0310   -2.6210    3.3170 c         1 MOL      0.876388
     63 O11        -9.1630   -2.8540    2.9170 o         1 MOL     -0.758239
     64 O12        -7.5740   -3.2230    4.2860 o         1 MOL     -0.758239
     65 H26        -5.8860   -3.6450    2.9110 hn        1 MOL      0.241855
     66 H27        -5.4740   -1.0300    1.7520 h1        1 MOL     -0.038742
     67 H28        -7.9260   -0.8380    2.2680 hc        1 MOL      0.066368
     68 H29        -6.7810   -1.0000    3.6350 hc        1 MOL      0.066368
     69 N6         -6.9790   -1.0550   -0.4710 n         1 MOL     -0.738393
     70 C23        -6.8270    0.3610   -0.2160 c3        1 MOL      0.428241
     71 C24        -7.3860    1.1910   -1.3190 c         1 MOL      0.491017
     72 O13        -7.9900    0.5980   -2.2320 o         1 MOL     -0.536078
     73 H30        -7.3890   -1.3190   -1.3530 hn        1 MOL      0.357878
     74 H31        -5.7510    0.5210   -0.2220 h1        1 MOL      0.012002
     75 H32        -7.3660    0.6410    0.6880 h1        1 MOL      0.012002
     76 N7         -7.2980    2.5380   -1.2110 n         1 MOL     -0.529767
     77 C25        -6.6090    3.3880   -0.2580 c3        1 MOL      0.099229
     78 C26        -5.3610    2.8720    0.4520 c         1 MOL      0.277341
     79 O14        -5.4550    2.4490    1.6300 o         1 MOL     -0.484583
     80 C27        -7.5940    3.7820    0.8510 c3        1 MOL     -0.051000
     81 C28        -8.7980    4.5920    0.3200 c3        1 MOL     -0.207401
     82 C29        -9.7360    5.1200    1.4020 c         1 MOL      0.595860
     83 N8         -9.5310    6.2900    1.9420 n         1 MOL     -0.732264
     84 O15       -10.6140    4.4470    1.8770 o         1 MOL     -0.542652
     85 H33        -7.9170    2.9650   -1.8890 hn        1 MOL      0.299336
     86 H34        -6.3230    4.2940   -0.7770 h1        1 MOL      0.078596
     87 H35        -7.0490    4.3660    1.5940 hc        1 MOL      0.073354
     88 H36        -8.0080    2.9330    1.4000 hc        1 MOL      0.073354
     89 H37        -9.3690    4.0060   -0.4080 hc        1 MOL      0.049338
     90 H38        -8.5100    5.4840   -0.2370 hc        1 MOL      0.049338
     91 H39        -8.7560    6.8570    1.6110 hn        1 MOL      0.346221
     92 H40       -10.2800    6.5000    2.5900 hn        1 MOL      0.346221
     93 N9         -4.2190    2.9030   -0.3090 n         1 MOL     -0.245187
     94 C30        -2.9980    2.1190   -0.1480 c3        1 MOL      0.023937
     95 C31        -2.5670    1.3870   -1.4340 c         1 MOL      0.473217
     96 O16        -3.0380    1.7010   -2.5250 o         1 MOL     -0.547477
     97 C32        -1.9310    2.8130    0.5610 c3        1 MOL      0.260723
     98 C33        -2.2910    3.1160    2.0070 c3        1 MOL     -0.173930
     99 C34        -1.5670    4.0730   -0.2330 c3        1 MOL     -0.173930
    100 H41        -4.3310    3.2720   -1.2420 hn        1 MOL      0.175761
    101 H42        -3.1880    1.2300    0.4540 h1        1 MOL      0.057438
    102 H43        -1.0890    2.1150    0.6560 hc        1 MOL     -0.075320
    103 H44        -3.0710    3.8760    1.9450 hc        1 MOL      0.035120
    104 H45        -2.5990    2.3030    2.6690 hc        1 MOL      0.035120
    105 H46        -1.4780    3.6490    2.4890 hc        1 MOL      0.035120
    106 H47        -1.3380    3.9440   -1.2840 hc        1 MOL      0.035120
    107 H48        -2.3810    4.7950   -0.0850 hc        1 MOL      0.035120
    108 H49        -0.6520    4.4200    0.2490 hc        1 MOL      0.035120
    109 N10        -1.5760    0.5100   -1.3500 n         1 MOL     -0.229191
    110 C35        -1.0450   -0.2420   -2.5140 c3        1 MOL     -0.009878
    111 C36         0.0470    0.5900   -3.2860 c         1 MOL      0.417830
    112 O17         0.5030    0.2170   -4.3270 o         1 MOL     -0.485674
    113 C37        -0.6090   -1.6920   -2.0140 c3        1 MOL     -0.499627
    114 C38         0.5810   -1.6710   -1.0510 c         1 MOL      0.596962
    115 N11         0.4780   -1.3460    0.1680 n         1 MOL     -0.677176
    116 O18         1.6460   -2.0590   -1.5020 o         1 MOL     -0.510045
    117 H50        -1.5470    0.1610   -0.4000 hn        1 MOL      0.173643
    118 H51        -1.8760   -0.3910   -3.2070 h1        1 MOL      0.140794
    119 H52        -0.2700   -2.3350   -2.8260 hc        1 MOL      0.218546
    120 H53        -1.4700   -2.1370   -1.5080 hc        1 MOL      0.218546
    121 H54        -0.4770   -1.1910    0.4840 hn        1 MOL      0.348937
    122 H55         1.2510   -1.4080    0.8170 hn        1 MOL      0.348937
    123 N12         0.4800    1.7120   -2.6510 n         1 MOL     -0.032529
    124 C39         1.7070    2.4400   -2.9810 c3        1 MOL     -0.044090
    125 C40         2.3010    3.1150   -1.7730 c         1 MOL      0.545411
    126 O19         1.5460    3.5440   -0.8360 o         1 MOL     -0.519741
    127 C41         1.4820    3.4960   -4.1150 c3        1 MOL      0.091859
    128 C42         0.4890    4.5800   -3.8120 ca        1 MOL     -0.021197
    129 C43         0.8460    5.7630   -3.1760 ca        1 MOL     -0.064303
    130 C44        -0.8670    4.2600   -4.0490 ca        1 MOL     -0.064303
    131 C45        -0.1690    6.6570   -2.7340 ca        1 MOL     -0.356435
    132 C46        -1.8560    5.0570   -3.5700 ca        1 MOL     -0.356435
    133 C47        -1.5250    6.2990   -2.9000 ca        1 MOL      0.372571
    134 O20        -2.5430    7.0260   -2.4670 oh        1 MOL     -0.492944
    135 H56         0.0820    1.8040   -1.7260 hn        1 MOL     -0.011461
    136 H57         2.4070    1.7200   -3.3970 h1        1 MOL      0.066222
    137 H58         1.1660    3.0110   -5.0340 hc        1 MOL     -0.022186
    138 H59         2.3980    4.0430   -4.3760 hc        1 MOL     -0.022186
    139 H60         1.8750    5.8600   -2.8760 ha        1 MOL      0.113916
    140 H61        -1.1790    3.3580   -4.5440 ha        1 MOL      0.113916
    141 H62         0.2010    7.5000   -2.1710 ha        1 MOL      0.189170
    142 H63        -2.8820    4.7860   -3.7070 ha        1 MOL      0.189170
    143 H64        -3.4100    6.7150   -2.7560 ho        1 MOL      0.350674
    144 N13         3.6030    3.3250   -1.7040 n         1 MOL     -0.453693
    145 C48         4.3420    3.9570   -0.5570 c3        1 MOL     -0.473519
    146 C49         5.7420    3.3460   -0.5560 c         1 MOL      0.787275
    147 O21         6.6040    3.7940   -1.2930 o         1 MOL     -0.526345
    148 C50         4.3550    5.4900   -0.8420 c3        1 MOL      0.268297
    149 C51         4.7420    6.1710    0.4940 c3        1 MOL     -0.425940
    150 C52         4.7820    7.7270    0.4840 c         1 MOL      0.809251
    151 O22         4.2590    8.3990   -0.3800 o         1 MOL     -0.752936
    152 O23         5.4120    8.3200    1.4130 o         1 MOL     -0.752936
    153 H65         4.1270    3.0560   -2.5190 hn        1 MOL      0.303570
    154 H66         3.8250    3.8140    0.3880 h1        1 MOL      0.175995
    155 H67         3.4020    5.8430   -1.2380 hc        1 MOL      0.014612
    156 H68         5.0840    5.7090   -1.6150 hc        1 MOL      0.014612
    157 H69         5.7270    5.7890    0.7570 hc        1 MOL      0.064795
    158 H70         4.0830    5.8480    1.3060 hc        1 MOL      0.064795
    159 N14         5.9210    2.2540    0.1440 n         1 MOL     -0.704412
    160 C53         6.9690    1.2660   -0.0290 c3        1 MOL     -0.034426
    161 C54         6.9350    0.6360   -1.4370 c         1 MOL      0.283218
    162 O24         8.0340    0.2270   -1.9390 o         1 MOL     -0.534071
    163 C55         6.9020    0.3350    1.1980 c3        1 MOL      0.133961
    164 C56         7.0610    1.1190    2.5420 c3        1 MOL     -0.154711
    165 C57         6.9370    0.2290    3.7150 c         1 MOL      0.673163
    166 O25         5.7960   -0.3210    3.8820 o         1 MOL     -0.700357
    167 O26         7.8970   -0.0070    4.4970 o         1 MOL     -0.700357
    168 H71         5.1040    1.9590    0.6710 hn        1 MOL      0.489365
    169 H72         7.9330    1.7620    0.0250 h1        1 MOL      0.143730
    170 H73         7.6990   -0.4100    1.1980 hc        1 MOL      0.011876
    171 H74         5.9250   -0.1440    1.1480 hc        1 MOL      0.011876
    172 H75         6.1280    1.6920    2.6190 hc        1 MOL      0.010465
    173 H76         8.0130    1.6260    2.6120 hc        1 MOL      0.010465
    174 N15         5.8410    0.7620   -2.1560 n         1 MOL      0.045963
    175 C58         5.6420    0.4220   -3.5170 c3        1 MOL     -0.324535
    176 H77         5.4060    1.3210   -4.0850 h1        1 MOL      0.116228
    177 H78         6.5510   -0.0310   -3.9160 h1        1 MOL      0.116228
    178 H79         4.8170   -0.2860   -3.5990 h1        1 MOL      0.116228
    179 H80         5.0170    1.0570   -1.6490 hn        1 MOL      0.112704
    180 Ca1         3.3010   -0.1330    4.1060 Ca        1 MOL      1.663094
    181 O27         1.0150    1.0000    2.9550 oh        1 MOL     -0.788845
    182 H81         0.1140    0.6790    2.9120 ho        1 MOL      0.390324
    183 H82         0.9370    1.9420    2.7830 ho        1 MOL      0.390324
    184 O28         1.3950   -1.5910    4.9710 oh        1 MOL     -0.788845
    185 H83         0.9830   -2.4290    4.7740 ho        1 MOL      0.390324
    186 H84         0.7740   -1.1550    5.5600 ho        1 MOL      0.390324
    187 O29         3.4660    1.9300    2.1940 oh        1 MOL     -0.788845
    188 H85         3.4060    1.5570    1.3130 ho        1 MOL      0.390324
    189 H86         2.7440    2.5500    2.2380 ho        1 MOL      0.390324
    190 O30         4.4090    2.3260    5.1280 oh        1 MOL     -0.788845
    191 H87         4.5500    2.0350    6.0300 ho        1 MOL      0.390324
    192 H88         4.8100    3.1960    5.0950 ho        1 MOL      0.390324
    193 O31         1.7710    1.3860    5.7000 oh        1 MOL     -0.788845
    194 H89         0.8780    1.6940    5.5370 ho        1 MOL      0.390324
    195 H90         2.1700    2.0690    6.2410 ho        1 MOL      0.390324
    196 O32         4.0650   -0.5160    6.5190 oh        1 MOL     -0.788845
    197 H91         3.3680   -0.8810    7.0680 ho        1 MOL      0.390324
    198 H92         4.7840   -0.3680    7.1320 ho        1 MOL      0.390324
@<TRIPOS>BOND
     1    1    2 1   
     2    1    4 1   
     3    1    5 1   
     4    1    6 1   
     5    2    3 2   
     6    2    7 1   
     7    7    8 1   
     8    7   15 1   
     9    8    9 1   
    10    8   11 1   
    11    8   16 1   
    12    9   10 2   
    13    9   19 1   
    14   11   12 1   
    15   11   17 1   
    16   11   18 1   
    17   12   13 1   
    18   12   14 1   
    19   19   20 1   
    20   19   27 1   
    21   20   21 1   
    22   20   23 1   
    23   20   28 1   
    24   21   22 2   
    25   21   38 1   
    26   23   24 1   
    27   23   25 1   
    28   23   29 1   
    29   24   26 1   
    30   24   30 1   
    31   24   31 1   
    32   25   32 1   
    33   25   33 1   
    34   25   34 1   
    35   26   35 1   
    36   26   36 1   
    37   26   37 1   
    38   38   39 1   
    39   38   46 1   
    40   39   40 1   
    41   39   42 1   
    42   39   47 1   
    43   40   41 2   
    44   40   50 1   
    45   42   43 1   
    46   42   48 1   
    47   42   49 1   
    48   43   44 1   
    49   43   45 1   
    50   50   51 1   
    51   50   54 1   
    52   51   52 1   
    53   51   55 1   
    54   51   56 1   
    55   52   53 2   
    56   52   57 1   
    57   57   58 1   
    58   57   65 1   
    59   58   59 1   
    60   58   61 1   
    61   58   66 1   
    62   59   60 2   
    63   59   69 1   
    64   61   62 1   
    65   61   67 1   
    66   61   68 1   
    67   62   63 1   
    68   62   64 1   
    69   69   70 1   
    70   69   73 1   
    71   70   71 1   
    72   70   74 1   
    73   70   75 1   
    74   71   72 2   
    75   71   76 1   
    76   76   77 1   
    77   76   85 1   
    78   77   78 1   
    79   77   80 1   
    80   77   86 1   
    81   78   79 2   
    82   78   93 1   
    83   80   81 1   
    84   80   87 1   
    85   80   88 1   
    86   81   82 1   
    87   81   89 1   
    88   81   90 1   
    89   82   83 1   
    90   82   84 2   
    91   83   91 1   
    92   83   92 1   
    93   93   94 1   
    94   93  100 1   
    95   94   95 1   
    96   94   97 1   
    97   94  101 1   
    98   95   96 2   
    99   95  109 1   
   100   97   98 1   
   101   97   99 1   
   102   97  102 1   
   103   98  103 1   
   104   98  104 1   
   105   98  105 1   
   106   99  106 1   
   107   99  107 1   
   108   99  108 1   
   109  109  110 1   
   110  109  117 1   
   111  110  111 1   
   112  110  113 1   
   113  110  118 1   
   114  111  112 2   
   115  111  123 1   
   116  113  114 1   
   117  113  119 1   
   118  113  120 1   
   119  114  115 1   
   120  114  116 2   
   121  115  121 1   
   122  115  122 1   
   123  123  124 1   
   124  123  135 1   
   125  124  125 1   
   126  124  127 1   
   127  124  136 1   
   128  125  126 2   
   129  125  144 1   
   130  127  128 1   
   131  127  137 1   
   132  127  138 1   
   133  128  129 ar  
   134  128  130 ar  
   135  129  131 ar  
   136  129  139 1   
   137  130  132 ar  
   138  130  140 1   
   139  131  133 ar  
   140  131  141 1   
   141  132  133 ar  
   142  132  142 1   
   143  133  134 1   
   144  134  143 1   
   145  144  145 1   
   146  144  153 1   
   147  145  146 1   
   148  145  148 1   
   149  145  154 1   
   150  146  147 2   
   151  146  159 1   
   152  148  149 1   
   153  148  155 1   
   154  148  156 1   
   155  149  150 1   
   156  149  157 1   
   157  149  158 1   
   158  150  151 1   
   159  150  152 1   
   160  159  160 1   
   161  159  168 1   
   162  160  161 1   
   163  160  163 1   
   164  160  169 1   
   165  161  162 2   
   166  161  174 1   
   167  163  164 1   
   168  163  170 1   
   169  163  171 1   
   170  164  165 1   
   171  164  172 1   
   172  164  173 1   
   173  165  166 1   
   174  165  167 1   
   175  174  175 1   
   176  174  179 1   
   177  175  176 1   
   178  175  177 1   
   179  175  178 1   
   180  181  182 1   
   181  181  183 1   
   182  184  185 1   
   183  184  186 1   
   184  187  188 1   
   185  187  189 1   
   186  190  191 1   
   187  190  192 1   
   188  193  194 1   
   189  193  195 1   
   190  196  197 1   
   191  196  198 1   
@<TRIPOS>SUBSTRUCTURE
     1 MOL         1 TEMP              0 ****  ****    0 ROOT
