@<TRIPOS>MOLECULE
MOL
  178   175     1     0     0
SMALL
resp


@<TRIPOS>ATOM
      1 C1          1.9520   -0.8940    5.5780 c3        1 MOL     -0.254728
      2 C2          2.9440   -0.4930    4.4110 c         1 MOL      0.656501
      3 O1          2.4790    0.1170    3.4400 o         1 MOL     -0.547397
      4 H1          1.0170   -1.2550    5.1520 hc        1 MOL      0.052734
      5 H2          2.4030   -1.6800    6.1850 hc        1 MOL      0.052734
      6 H3          1.7530   -0.0220    6.2020 hc        1 MOL      0.052734
      7 N1          4.1770   -0.9660    4.5030 n         1 MOL     -0.583096
      8 C3          5.1510   -0.6300    3.4820 c3        1 MOL      0.226656
      9 C4          5.5080   -1.7840    2.4430 c         1 MOL      0.591651
     10 O2          6.3450   -1.5500    1.5590 o         1 MOL     -0.497681
     11 C5          6.4140   -0.0200    4.1440 c3        1 MOL     -0.157254
     12 C6          7.0760    1.1320    3.3950 c         1 MOL      0.707161
     13 O3          6.3490    1.9550    2.8320 o         1 MOL     -0.717192
     14 O4          8.3140    1.2120    3.5180 o         1 MOL     -0.717192
     15 H4          4.4050   -1.5110    5.3220 hn        1 MOL      0.293535
     16 H5          4.7850    0.1490    2.8120 h1        1 MOL      0.049446
     17 H6          7.0780   -0.8580    4.3440 hc        1 MOL     -0.002471
     18 H7          6.1110    0.4120    5.0890 hc        1 MOL     -0.002471
     19 N2          4.8910   -2.9540    2.5760 n         1 MOL     -0.649885
     20 C7          4.8290   -4.0490    1.6290 c3        1 MOL      0.301433
     21 C8          4.6320   -3.6310    0.1470 c         1 MOL      0.625108
     22 O5          3.5270   -3.7830   -0.3620 o         1 MOL     -0.678894
     23 C9          6.1320   -4.8530    1.7490 c3        1 MOL     -0.390778
     24 H8          4.4110   -3.0880    3.4480 hn        1 MOL      0.320357
     25 H9          3.9330   -4.6430    1.8160 h1        1 MOL      0.033804
     26 H10         7.0510   -4.2720    1.6060 hc        1 MOL      0.097537
     27 H11         6.2150   -5.4700    2.6500 hc        1 MOL      0.097537
     28 H12         6.0770   -5.5940    0.9500 hc        1 MOL      0.097537
     29 N3          5.6510   -3.1280   -0.6420 n         1 MOL     -0.601099
     30 C10         5.5030   -2.7270   -2.0430 c3        1 MOL      0.595882
     31 C11         5.7690   -1.2370   -2.2670 c         1 MOL      0.267339
     32 O6          5.8350   -0.8120   -3.4400 o         1 MOL     -0.542119
     33 C12         6.4380   -3.6070   -2.8700 c3        1 MOL     -0.247913
     34 C13         7.8660   -3.6650   -2.4690 c         1 MOL      0.746499
     35 O7          8.6060   -4.4100   -3.1650 o         1 MOL     -0.726161
     36 O8          8.3280   -2.9270   -1.5650 o         1 MOL     -0.726161
     37 H13         6.5750   -2.9490   -0.2930 hn        1 MOL      0.272568
     38 H14         4.4710   -2.9020   -2.3330 h1        1 MOL     -0.135266
     39 H15         6.4010   -3.2000   -3.8790 hc        1 MOL     -0.000984
     40 H16         5.9690   -4.5790   -2.9930 hc        1 MOL     -0.000984
     41 N4          6.0000   -0.4760   -1.1820 n         1 MOL      0.028478
     42 C14         6.3130    0.9440   -1.3070 c3        1 MOL     -0.101434
     43 C15         5.2800    1.8080   -1.9000 c         1 MOL      0.609487
     44 O9          5.5070    2.7870   -2.6100 o         1 MOL     -0.598346
     45 H17         5.8040   -0.8800   -0.2760 hn        1 MOL      0.089490
     46 H18         7.2640    1.0700   -1.8240 h1        1 MOL      0.072209
     47 H19         6.3560    1.3030   -0.2820 h1        1 MOL      0.072209
     48 N5          3.9720    1.5240   -1.7320 n         1 MOL     -0.290918
     49 C16         2.8850    2.1510   -2.4220 c3        1 MOL     -0.065152
     50 C17         2.5020    3.5380   -1.7720 c         1 MOL      0.684554
     51 O10         1.7810    3.6890   -0.7590 o         1 MOL     -0.520450
     52 C18         1.6140    1.2590   -2.3840 c3        1 MOL     -0.650735
     53 C19         1.8110    0.0330   -3.2080 c         1 MOL      0.943881
     54 N6          2.0630    0.1240   -4.4800 n         1 MOL     -0.813421
     55 O11         1.7870   -1.1150   -2.7600 o         1 MOL     -0.679731
     56 H20         3.8110    0.7190   -1.1480 hn        1 MOL      0.195083
     57 H21         3.2060    2.3270   -3.4420 h1        1 MOL      0.059954
     58 H22         0.7950    1.8230   -2.8250 hc        1 MOL      0.239516
     59 H23         1.3540    0.8970   -1.3900 hc        1 MOL      0.239516
     60 H24         2.2240    0.9900   -4.9640 hn        1 MOL      0.353869
     61 H25         2.4700   -0.6490   -4.9840 hn        1 MOL      0.353869
     62 N7          3.0900    4.6490   -2.3850 n         1 MOL     -0.514054
     63 C20         2.8870    6.0110   -1.8360 c3        1 MOL     -0.035892
     64 C21         1.4640    6.6010   -1.9530 c         1 MOL      0.449741
     65 O12         0.8240    6.4980   -2.9810 o         1 MOL     -0.509781
     66 H26         3.7200    4.4850   -3.1610 hn        1 MOL      0.337050
     67 H27         3.5870    6.7380   -2.2460 h1        1 MOL      0.081187
     68 H28         3.1280    6.0210   -0.7780 h1        1 MOL      0.081187
     69 N8          0.9590    7.1800   -0.8950 n         1 MOL     -0.289408
     70 C22        -0.4340    7.6910   -0.6800 c3        1 MOL     -0.376439
     71 C23        -1.4620    6.6580   -0.2200 c         1 MOL      0.585865
     72 O13        -2.6280    6.9690    0.0190 o         1 MOL     -0.568399
     73 C24        -0.4250    8.9190    0.2210 c3        1 MOL      0.628586
     74 C25        -0.3030    8.6430    1.6910 c3        1 MOL     -0.426631
     75 O14         0.6610    9.7580   -0.1670 oh        1 MOL     -0.671439
     76 H29         1.6290    7.3300   -0.1560 hn        1 MOL      0.208559
     77 H30        -0.7170    7.9830   -1.6960 h1        1 MOL      0.168808
     78 H31        -1.3820    9.3990    0.0520 h1        1 MOL     -0.004703
     79 H32         1.4270    9.2040   -0.0520 ho        1 MOL      0.377338
     80 H33        -0.2040    9.6070    2.1910 hc        1 MOL      0.096078
     81 H34        -1.2890    8.3110    2.0040 hc        1 MOL      0.096078
     82 H35         0.5400    7.9790    1.8450 hc        1 MOL      0.096078
     83 N9         -1.0250    5.3690    0.0010 n         1 MOL     -0.260257
     84 C26        -1.7580    4.3130    0.7150 c3        1 MOL     -0.073441
     85 C27        -1.6920    2.9350   -0.0080 c         1 MOL      0.498322
     86 O15        -0.9330    2.8200   -0.9480 o         1 MOL     -0.483656
     87 C28        -1.4510    4.2470    2.2400 c3        1 MOL      0.078363
     88 C29        -0.0600    3.5470    2.4650 c3        1 MOL     -0.298205
     89 C30        -1.4870    5.5300    3.0910 c3        1 MOL     -0.130059
     90 C31         0.0750    2.9070    3.8660 c3        1 MOL     -0.053586
     91 H36        -0.1020    5.0940   -0.2920 hn        1 MOL      0.229108
     92 H37        -2.8390    4.4550    0.7370 h1        1 MOL      0.065045
     93 H38        -2.1770    3.5650    2.6790 hc        1 MOL      0.006745
     94 H39         0.6960    4.3090    2.2550 hc        1 MOL      0.137018
     95 H40         0.1280    2.7700    1.7200 hc        1 MOL      0.137018
     96 H41        -1.5760    5.4300    4.1740 hc        1 MOL      0.039273
     97 H42        -0.5440    6.0480    2.9100 hc        1 MOL      0.039273
     98 H43        -2.3810    6.1180    2.8990 hc        1 MOL      0.039273
     99 H44         0.0620    3.7300    4.5910 hc        1 MOL      0.027480
    100 H45        -0.7420    2.2580    4.1780 hc        1 MOL      0.027480
    101 H46         0.9950    2.3310    3.9440 hc        1 MOL      0.027480
    102 N10        -2.3640    1.8790    0.4350 n         1 MOL     -0.504288
    103 C32        -2.2600    0.5740   -0.0490 c3        1 MOL      0.096119
    104 C33        -3.6360   -0.1420   -0.2510 c         1 MOL      0.413402
    105 O16        -3.7910   -1.3570   -0.2060 o         1 MOL     -0.427193
    106 C34        -1.2310   -0.2370    0.7650 c3        1 MOL     -0.120846
    107 C35        -0.4400   -1.3110   -0.0080 c         1 MOL      0.633847
    108 O17         0.5630   -1.8620    0.4530 o         1 MOL     -0.739214
    109 O18        -0.7130   -1.5800   -1.1940 o         1 MOL     -0.739214
    110 H47        -2.8820    1.9760    1.2900 hn        1 MOL      0.278700
    111 H48        -1.7930    0.5720   -1.0260 h1        1 MOL      0.099592
    112 H49        -1.5810   -0.6820    1.6980 hc        1 MOL      0.092507
    113 H50        -0.4860    0.4990    1.0530 hc        1 MOL      0.092507
    114 N11        -4.7460    0.6330   -0.4030 n         1 MOL     -0.421007
    115 C36        -6.0260    0.0110   -0.8460 c3        1 MOL      0.172171
    116 C37        -6.5990   -0.8220    0.2660 c         1 MOL      0.090885
    117 O19        -6.6590   -0.4120    1.4550 o         1 MOL     -0.410056
    118 C38        -7.0090    1.1900   -1.2920 c3        1 MOL     -0.218636
    119 C39        -8.2410    0.7410   -2.0700 ca        1 MOL      0.098121
    120 C40        -8.1180    0.5810   -3.5060 ca        1 MOL     -0.206532
    121 C41        -9.3390    0.2820   -1.4110 ca        1 MOL     -0.206532
    122 C42        -9.1580   -0.0960   -4.1790 ca        1 MOL     -0.041278
    123 C43       -10.3900   -0.2840   -2.0740 ca        1 MOL     -0.041278
    124 C44       -10.2910   -0.5490   -3.4780 ca        1 MOL     -0.191281
    125 H51        -4.6350    1.6360   -0.4060 hn        1 MOL      0.258835
    126 H52        -5.6570   -0.5640   -1.6910 h1        1 MOL      0.080327
    127 H53        -6.4080    1.8710   -1.8940 hc        1 MOL      0.102195
    128 H54        -7.3130    1.7930   -0.4310 hc        1 MOL      0.102195
    129 H55        -7.1680    0.8820   -3.9230 ha        1 MOL      0.139342
    130 H56        -9.4500    0.3950   -0.3380 ha        1 MOL      0.139342
    131 H57        -9.1470   -0.0820   -5.2530 ha        1 MOL      0.096387
    132 H58       -11.3200   -0.5310   -1.5700 ha        1 MOL      0.096387
    133 H59       -11.1080   -0.9930   -4.0200 ha        1 MOL      0.120743
    134 N12        -6.9550   -2.0570   -0.1160 n         1 MOL      0.008286
    135 C45        -7.4940   -3.0690    0.8550 c3        1 MOL      0.084079
    136 C46        -6.4370   -3.2390    2.0000 c         1 MOL      0.256931
    137 O20        -6.8190   -3.6510    3.0920 o         1 MOL     -0.526440
    138 C47        -7.7920   -4.2980    0.0650 c3        1 MOL     -0.061462
    139 C48        -8.0630   -3.6940   -1.2810 c3        1 MOL     -0.012654
    140 C49        -7.0910   -2.5720   -1.4680 c3        1 MOL      0.193923
    141 H60        -8.4360   -2.6700    1.2410 h1        1 MOL      0.061925
    142 H61        -6.9330   -4.9590   -0.0040 hc        1 MOL      0.043861
    143 H62        -8.7320   -4.7960    0.3370 hc        1 MOL      0.043861
    144 H63        -7.9150   -4.4020   -2.1020 hc        1 MOL     -0.011116
    145 H64        -9.0380   -3.2210   -1.3880 hc        1 MOL     -0.011116
    146 H65        -6.1760   -2.9780   -1.8980 h1        1 MOL     -0.013962
    147 H66        -7.3310   -1.8350   -2.2370 h1        1 MOL     -0.013962
    148 N13        -5.0970   -3.0870    1.7940 n         1 MOL     -0.026471
    149 C50        -4.0380   -3.3440    2.7810 c3        1 MOL     -0.169387
    150 C51        -3.9030   -2.0850    3.7010 c         1 MOL      0.352943
    151 O21        -3.0880   -2.1150    4.5950 o         1 MOL     -0.520367
    152 C52        -2.6830   -3.5880    2.1590 c3        1 MOL      0.381167
    153 C53        -2.6980   -4.7760    1.1860 c3        1 MOL     -0.496235
    154 C54        -1.4130   -4.8620    0.2650 c         1 MOL      0.900543
    155 O22        -0.2460   -4.6550    0.6780 o         1 MOL     -0.804103
    156 O23        -1.4410   -4.8870   -0.9860 o         1 MOL     -0.804103
    157 H67        -4.8160   -2.7800    0.8780 hn        1 MOL      0.103191
    158 H68        -4.2230   -4.1450    3.4880 h1        1 MOL      0.119693
    159 H69        -1.9200   -3.7630    2.9110 hc        1 MOL     -0.018602
    160 H70        -2.4270   -2.6690    1.6410 hc        1 MOL     -0.018602
    161 H71        -3.5440   -4.6700    0.5190 hc        1 MOL      0.069610
    162 H72        -2.7590   -5.6820    1.8070 hc        1 MOL      0.069610
    163 N14        -4.7430   -1.0000    3.5680 n         1 MOL     -0.061538
    164 C55        -4.7970    0.1540    4.4530 c3        1 MOL     -0.216005
    165 H73        -5.7540    0.1670    4.9750 h1        1 MOL      0.083887
    166 H74        -3.9880    0.0910    5.1810 h1        1 MOL      0.083887
    167 H75        -4.6910    1.0670    3.8680 h1        1 MOL      0.083887
    168 H76        -5.3530   -0.9730    2.7610 hn        1 MOL      0.115143
    169 Ca1         1.0690   -3.4880   -1.4010 Ca        1 MOL      1.788559
    170 O24         2.5550   -3.7540   -3.6730 oh        1 MOL     -0.794263
    171 H77         2.7700   -3.2000   -4.4190 ho        1 MOL      0.390706
    172 H78         2.9760   -4.5920   -3.8650 ho        1 MOL      0.390706
    173 O25        -0.1370   -3.2480   -3.9220 oh        1 MOL     -0.794263
    174 H79        -0.4600   -4.1100   -4.1770 ho        1 MOL      0.390706
    175 H80         0.0360   -2.8060   -4.7450 ho        1 MOL      0.390706
    176 O26         1.4040   -6.0880   -1.5840 oh        1 MOL     -0.794263
    177 H81         2.2340   -6.2970   -2.0220 ho        1 MOL      0.390706
    178 H82         0.8010   -6.7720   -1.8740 ho        1 MOL      0.390706
@<TRIPOS>BOND
     1    1    2 1   
     2    1    4 1   
     3    1    5 1   
     4    1    6 1   
     5    2    3 2   
     6    2    7 1   
     7    7    8 1   
     8    7   15 1   
     9    8    9 1   
    10    8   11 1   
    11    8   16 1   
    12    9   10 2   
    13    9   19 1   
    14   11   12 1   
    15   11   17 1   
    16   11   18 1   
    17   12   13 1   
    18   12   14 1   
    19   19   20 1   
    20   19   24 1   
    21   20   21 1   
    22   20   23 1   
    23   20   25 1   
    24   21   22 2   
    25   21   29 1   
    26   23   26 1   
    27   23   27 1   
    28   23   28 1   
    29   29   30 1   
    30   29   37 1   
    31   30   31 1   
    32   30   33 1   
    33   30   38 1   
    34   31   32 2   
    35   31   41 1   
    36   33   34 1   
    37   33   39 1   
    38   33   40 1   
    39   34   35 1   
    40   34   36 1   
    41   41   42 1   
    42   41   45 1   
    43   42   43 1   
    44   42   46 1   
    45   42   47 1   
    46   43   44 2   
    47   43   48 1   
    48   48   49 1   
    49   48   56 1   
    50   49   50 1   
    51   49   52 1   
    52   49   57 1   
    53   50   51 2   
    54   50   62 1   
    55   52   53 1   
    56   52   58 1   
    57   52   59 1   
    58   53   54 1   
    59   53   55 2   
    60   54   60 1   
    61   54   61 1   
    62   62   63 1   
    63   62   66 1   
    64   63   64 1   
    65   63   67 1   
    66   63   68 1   
    67   64   65 2   
    68   64   69 1   
    69   69   70 1   
    70   69   76 1   
    71   70   71 1   
    72   70   73 1   
    73   70   77 1   
    74   71   72 2   
    75   71   83 1   
    76   73   74 1   
    77   73   75 1   
    78   73   78 1   
    79   74   80 1   
    80   74   81 1   
    81   74   82 1   
    82   75   79 1   
    83   83   84 1   
    84   83   91 1   
    85   84   85 1   
    86   84   87 1   
    87   84   92 1   
    88   85   86 2   
    89   85  102 1   
    90   87   88 1   
    91   87   89 1   
    92   87   93 1   
    93   88   90 1   
    94   88   94 1   
    95   88   95 1   
    96   89   96 1   
    97   89   97 1   
    98   89   98 1   
    99   90   99 1   
   100   90  100 1   
   101   90  101 1   
   102  102  103 1   
   103  102  110 1   
   104  103  104 1   
   105  103  106 1   
   106  103  111 1   
   107  104  105 2   
   108  104  114 1   
   109  106  107 1   
   110  106  112 1   
   111  106  113 1   
   112  107  108 1   
   113  107  109 1   
   114  114  115 1   
   115  114  125 1   
   116  115  116 1   
   117  115  118 1   
   118  115  126 1   
   119  116  117 2   
   120  116  134 1   
   121  118  119 1   
   122  118  127 1   
   123  118  128 1   
   124  119  120 ar  
   125  119  121 ar  
   126  120  122 ar  
   127  120  129 1   
   128  121  123 ar  
   129  121  130 1   
   130  122  124 ar  
   131  122  131 1   
   132  123  124 ar  
   133  123  132 1   
   134  124  133 1   
   135  134  135 1   
   136  134  140 1   
   137  135  136 1   
   138  135  138 1   
   139  135  141 1   
   140  136  137 2   
   141  136  148 1   
   142  138  139 1   
   143  138  142 1   
   144  138  143 1   
   145  139  140 1   
   146  139  144 1   
   147  139  145 1   
   148  140  146 1   
   149  140  147 1   
   150  148  149 1   
   151  148  157 1   
   152  149  150 1   
   153  149  152 1   
   154  149  158 1   
   155  150  151 2   
   156  150  163 1   
   157  152  153 1   
   158  152  159 1   
   159  152  160 1   
   160  153  154 1   
   161  153  161 1   
   162  153  162 1   
   163  154  155 1   
   164  154  156 1   
   165  163  164 1   
   166  163  168 1   
   167  164  165 1   
   168  164  166 1   
   169  164  167 1   
   170  170  171 1   
   171  170  172 1   
   172  173  174 1   
   173  173  175 1   
   174  176  177 1   
   175  176  178 1   
@<TRIPOS>SUBSTRUCTURE
     1 MOL         1 TEMP              0 ****  ****    0 ROOT
