@<TRIPOS>MOLECULE
MOL
  181   177     1     0     0
SMALL
resp


@<TRIPOS>ATOM
      1 C1          6.9400    1.3550    6.2300 c3        1 MOL     -0.471267
      2 C2          6.1510    0.8460    5.0740 c         1 MOL      0.776242
      3 O1          4.9850    1.0760    4.9220 o         1 MOL     -0.568741
      4 H1          7.6870    2.0650    5.8750 hc        1 MOL      0.109913
      5 H2          6.2750    1.8520    6.9350 hc        1 MOL      0.109913
      6 H3          7.4390    0.5210    6.7250 hc        1 MOL      0.109913
      7 N1          6.7850    0.2210    4.0750 n         1 MOL     -0.541171
      8 C3          8.2770   -0.0850    3.8300 c3        1 MOL      0.014536
      9 C4          8.5330   -1.4890    3.2100 c         1 MOL      0.465354
     10 O2          7.7510   -2.4500    3.5400 o         1 MOL     -0.468245
     11 C5          8.8800    1.0280    2.9020 c3        1 MOL     -0.128314
     12 C6          8.0020    1.1260    1.6680 c         1 MOL      0.762999
     13 O3          7.0910    1.9780    1.5810 o         1 MOL     -0.758497
     14 O4          8.2040    0.3780    0.7080 o         1 MOL     -0.758497
     15 H4          6.1690   -0.0410    3.3170 hn        1 MOL      0.359238
     16 H5          8.8390    0.0400    4.7540 h1        1 MOL      0.086303
     17 H6          9.9360    0.8790    2.7040 hc        1 MOL      0.013381
     18 H7          8.7870    1.9530    3.4740 hc        1 MOL      0.013381
     19 N2          9.5270   -1.7450    2.3280 n         1 MOL     -0.549682
     20 C7          9.7070   -3.0410    1.5910 c3        1 MOL      0.193394
     21 C8          8.4370   -3.6290    0.8510 c         1 MOL      0.340740
     22 O5          8.3050   -4.8170    0.5410 o         1 MOL     -0.536715
     23 C9         10.4410   -4.0750    2.4730 c3        1 MOL     -0.279860
     24 H8         10.0680   -1.0220    1.8730 hn        1 MOL      0.348981
     25 H9         10.3990   -2.7960    0.7790 h1        1 MOL      0.032838
     26 H10        11.3210   -3.7290    3.0170 hc        1 MOL      0.085585
     27 H11         9.7480   -4.4980    3.2070 hc        1 MOL      0.085585
     28 H12        10.7080   -4.9750    1.9260 hc        1 MOL      0.085585
     29 N3          7.3470   -2.8180    0.6470 n         1 MOL      0.124698
     30 C10         6.1950   -3.1340   -0.1150 c3        1 MOL     -0.134413
     31 C11         6.2310   -2.5080   -1.5240 c         1 MOL      0.272068
     32 O6          6.5980   -1.3130   -1.6760 o         1 MOL     -0.452502
     33 C12         4.9800   -2.6540    0.6910 c3        1 MOL      0.055059
     34 C13         5.0300   -1.2500    1.3370 c         1 MOL      0.585583
     35 O7          4.6450   -1.1530    2.5240 o         1 MOL     -0.634117
     36 O8          5.3780   -0.2630    0.6550 o         1 MOL     -0.634117
     37 H13         7.4010   -1.9030    1.0860 hn        1 MOL     -0.055507
     38 H14         6.1030   -4.2190   -0.1770 h1        1 MOL      0.083570
     39 H15         4.8760   -3.4140    1.4580 hc        1 MOL      0.001451
     40 H16         4.1120   -2.7830    0.0320 hc        1 MOL      0.001451
     41 N4          5.8070   -3.3090   -2.5120 n         1 MOL     -0.185981
     42 C14         5.5950   -2.9460   -3.9120 c3        1 MOL     -0.332974
     43 C15         4.5220   -1.9030   -4.1380 c         1 MOL      0.677581
     44 O9          4.7160   -1.1140   -5.0030 o         1 MOL     -0.568194
     45 H17         5.5370   -4.2520   -2.2610 hn        1 MOL      0.234216
     46 H18         5.3110   -3.8480   -4.4530 h1        1 MOL      0.152264
     47 H19         6.5730   -2.6400   -4.2850 h1        1 MOL      0.152264
     48 N5          3.4580   -1.8880   -3.2730 n         1 MOL     -0.593602
     49 C16         2.3670   -0.8270   -3.3040 c3        1 MOL      0.314918
     50 C17         2.8610    0.4930   -2.7260 c         1 MOL      0.775533
     51 O10         3.9820    0.5490   -2.2620 o         1 MOL     -0.656383
     52 C18         1.1650   -1.4080   -2.5710 c3        1 MOL     -0.581763
     53 C19         0.5620   -2.5990   -3.3280 c         1 MOL      0.859620
     54 N6         -0.1880   -3.5220   -2.7240 n         1 MOL     -0.914591
     55 O11         0.6860   -2.7380   -4.4990 o         1 MOL     -0.558514
     56 H20         3.3510   -2.6250   -2.6000 hn        1 MOL      0.331410
     57 H21         2.0700   -0.5440   -4.3130 h1        1 MOL      0.027886
     58 H22         0.3050   -0.7520   -2.4630 hc        1 MOL      0.122204
     59 H23         1.3840   -1.7490   -1.5660 hc        1 MOL      0.122204
     60 H24        -0.3330   -3.4540   -1.7300 hn        1 MOL      0.404623
     61 H25        -0.7850   -4.1660   -3.2290 hn        1 MOL      0.404623
     62 N7          2.0530    1.5790   -2.7580 n         1 MOL     -0.700212
     63 C20         2.5920    2.9420   -2.7120 c3        1 MOL     -0.002001
     64 C21         1.4880    3.9010   -3.2320 c         1 MOL      0.438434
     65 O12         1.2980    4.1270   -4.4260 o         1 MOL     -0.528622
     66 H26         1.1390    1.4960   -3.1800 hn        1 MOL      0.391965
     67 H27         3.4930    3.0920   -3.3150 h1        1 MOL      0.100216
     68 H28         2.9340    3.0400   -1.6890 h1        1 MOL      0.100216
     69 N8          0.6880    4.5340   -2.4050 n         1 MOL     -0.334187
     70 C22         0.6220    4.2910   -0.9300 c3        1 MOL     -0.107095
     71 C23        -0.8220    4.0710   -0.4970 c         1 MOL      0.617803
     72 O13        -1.7900    4.7200   -0.9030 o         1 MOL     -0.545643
     73 C24         1.1170    5.4900   -0.1770 c3        1 MOL      0.269955
     74 C25         1.1700    5.5730    1.3610 c3        1 MOL     -0.175305
     75 O14         2.4260    5.7760   -0.5440 oh        1 MOL     -0.582134
     76 H29         0.1650    5.3150   -2.7680 hn        1 MOL      0.288618
     77 H30         1.2620    3.4500   -0.6870 h1        1 MOL      0.103940
     78 H31         0.4170    6.2710   -0.4740 h1        1 MOL      0.020161
     79 H32         2.5000    5.8540   -1.5050 ho        1 MOL      0.340040
     80 H33         0.1530    5.5620    1.7670 hc        1 MOL      0.064316
     81 H34         1.6840    4.6880    1.7340 hc        1 MOL      0.064316
     82 H35         1.7850    6.3920    1.7250 hc        1 MOL      0.064316
     83 N9         -0.9740    3.1410    0.4140 n         1 MOL     -0.485984
     84 C26        -2.2260    2.6310    0.8490 c3        1 MOL     -0.106310
     85 C27        -2.8800    3.6120    1.9210 c         1 MOL      0.790182
     86 O15        -2.1790    3.9640    2.9030 o         1 MOL     -0.639993
     87 C28        -2.0640    1.2130    1.3300 c3        1 MOL      0.059028
     88 C29        -1.5320    0.2680    0.2230 c3        1 MOL     -0.038129
     89 C30        -3.3050    0.6710    2.0460 c3        1 MOL     -0.349831
     90 C31        -2.4740   -0.1280   -0.9050 c3        1 MOL     -0.130229
     91 H36        -0.1500    2.6680    0.7460 hn        1 MOL      0.267777
     92 H37        -2.8070    2.4820   -0.0630 h1        1 MOL      0.203570
     93 H38        -1.3440    1.2310    2.1450 hc        1 MOL      0.034711
     94 H39        -1.1000   -0.6350    0.6600 hc        1 MOL      0.001759
     95 H40        -0.7200    0.7970   -0.2860 hc        1 MOL      0.001759
     96 H41        -3.1220   -0.4070    2.1050 hc        1 MOL      0.108234
     97 H42        -3.3060    1.1550    3.0250 hc        1 MOL      0.108234
     98 H43        -4.1380    0.8580    1.3680 hc        1 MOL      0.108234
     99 H44        -3.1290   -0.9110   -0.5390 hc        1 MOL      0.050590
    100 H45        -2.9080    0.7280   -1.4210 hc        1 MOL      0.050590
    101 H46        -1.9300   -0.6880   -1.6720 hc        1 MOL      0.050590
    102 N10        -4.1090    4.1090    1.8770 n         1 MOL     -0.815137
    103 C32        -5.0970    3.8640    0.8360 c3        1 MOL      0.684222
    104 C33        -6.1550    2.8400    1.3260 c         1 MOL      0.540718
    105 O16        -6.1390    2.3730    2.4770 o         1 MOL     -0.615393
    106 C34        -5.6510    5.1950    0.2920 c3        1 MOL     -0.294867
    107 C35        -6.5450    4.9310   -0.9200 c         1 MOL      0.692855
    108 O17        -6.2700    3.9930   -1.6900 o         1 MOL     -0.705262
    109 O18        -7.5870    5.6780   -0.9890 o         1 MOL     -0.705262
    110 H47        -4.2750    4.7450    2.6430 hn        1 MOL      0.352922
    111 H48        -4.5790    3.3680    0.0180 h1        1 MOL     -0.158496
    112 H49        -4.8800    5.9230    0.0830 hc        1 MOL      0.025589
    113 H50        -6.3100    5.5050    1.1010 hc        1 MOL      0.025589
    114 N11        -6.9780    2.3960    0.4020 n         1 MOL     -0.731190
    115 C36        -7.7710    1.1610    0.5770 c3        1 MOL      0.501291
    116 C37        -8.0050    0.5110   -0.7900 c         1 MOL      0.191744
    117 O19        -8.1810    1.2500   -1.7710 o         1 MOL     -0.497334
    118 C38        -9.0110    1.5220    1.4330 c3        1 MOL     -0.196950
    119 C39        -9.9440    0.4270    1.8040 ca        1 MOL      0.030177
    120 C40       -10.9350    0.0700    0.8850 ca        1 MOL     -0.150713
    121 C41        -9.7820   -0.2960    2.9460 ca        1 MOL     -0.150713
    122 C42       -11.6080   -1.1540    1.1510 ca        1 MOL     -0.082674
    123 C43       -10.4300   -1.5160    3.1560 ca        1 MOL     -0.082674
    124 C44       -11.2860   -2.0160    2.1970 ca        1 MOL     -0.196072
    125 H51        -6.8590    2.6930   -0.5540 hn        1 MOL      0.410242
    126 H52        -7.1820    0.4230    1.1350 h1        1 MOL     -0.056102
    127 H53        -9.4930    2.3210    0.8810 hc        1 MOL      0.079011
    128 H54        -8.7370    2.0020    2.3780 hc        1 MOL      0.079011
    129 H55       -11.1870    0.7360    0.0750 ha        1 MOL      0.115926
    130 H56        -9.0940    0.0810    3.6930 ha        1 MOL      0.115926
    131 H57       -12.3900   -1.4430    0.4660 ha        1 MOL      0.086098
    132 H58       -10.2430   -2.0220    4.0910 ha        1 MOL      0.086098
    133 H59       -11.8230   -2.9540    2.2920 ha        1 MOL      0.119753
    134 N12        -8.1280   -0.8150   -0.8960 n         1 MOL      0.150059
    135 C45        -7.9100   -1.8570    0.1050 c3        1 MOL      0.139985
    136 C46        -6.4420   -2.2340    0.0990 c         1 MOL      0.409174
    137 O20        -5.5840   -1.3750   -0.1450 o         1 MOL     -0.600343
    138 C47        -8.8900   -2.9580   -0.2710 c3        1 MOL     -0.530385
    139 C48        -8.7190   -2.8140   -1.8250 c3        1 MOL      0.022406
    140 C49        -8.7040   -1.3480   -2.1070 c3        1 MOL     -0.001115
    141 H60        -8.0940   -1.4640    1.1010 h1        1 MOL      0.013961
    142 H61        -8.6420   -3.9520    0.1080 hc        1 MOL      0.167030
    143 H62        -9.9250   -2.6190   -0.1620 hc        1 MOL      0.167030
    144 H63        -7.7600   -3.1780   -2.2000 hc        1 MOL      0.033826
    145 H64        -9.5510   -3.2500   -2.3840 hc        1 MOL      0.033826
    146 H65        -8.0580   -1.1140   -2.9520 h1        1 MOL      0.021441
    147 H66        -9.7330   -1.0230   -2.2410 h1        1 MOL      0.021441
    148 N13        -6.0230   -3.4650    0.3890 n         1 MOL     -0.023937
    149 C50        -4.5570   -3.7280    0.6960 c3        1 MOL      0.185999
    150 C51        -4.2800   -4.6610    1.9570 c         1 MOL      0.468685
    151 O21        -3.4140   -5.4810    1.8460 o         1 MOL     -0.518434
    152 C52        -3.8530   -4.2410   -0.5580 c3        1 MOL     -0.207309
    153 C53        -4.3730   -5.5050   -1.2520 c3        1 MOL     -0.022793
    154 C54        -5.7230   -5.4200   -1.9280 c         1 MOL      0.667018
    155 O22        -6.7690   -5.7700   -1.3500 o         1 MOL     -0.718768
    156 O23        -5.7590   -4.9980   -3.1080 o         1 MOL     -0.718768
    157 H67        -6.6520   -4.2390    0.5020 hn        1 MOL      0.107180
    158 H68        -4.1040   -2.8020    1.0350 h1        1 MOL      0.035828
    159 H69        -2.8840   -4.4510   -0.1100 hc        1 MOL      0.046400
    160 H70        -3.8860   -3.3980   -1.2480 hc        1 MOL      0.046400
    161 H71        -4.4550   -6.2750   -0.4820 hc        1 MOL     -0.022124
    162 H72        -3.5840   -5.7780   -1.9530 hc        1 MOL     -0.022124
    163 N14        -4.9680   -4.4950    3.0840 n         1 MOL     -0.471466
    164 C55        -5.7870   -3.3120    3.5810 c3        1 MOL      0.003014
    165 H73        -6.3030   -3.5890    4.5000 h1        1 MOL      0.044218
    166 H74        -5.1260   -2.4680    3.7760 h1        1 MOL      0.044218
    167 H75        -6.5200   -3.0340    2.8230 h1        1 MOL      0.044218
    168 H76        -4.8950   -5.2090    3.7890 hn        1 MOL      0.283795
    169 Ca1         6.3310    1.3130   -0.9740 Ca        1 MOL      1.787440
    170 O24         4.6920    3.4160   -0.0960 oh        1 MOL     -0.845653
    171 H77         4.6940    4.3770   -0.0700 ho        1 MOL      0.411239
    172 H78         4.3830    3.1530    0.7730 ho        1 MOL      0.411239
    173 O25         8.7490    1.8920   -1.9800 oh        1 MOL     -0.845653
    174 H79         8.7830    1.9400   -2.9430 ho        1 MOL      0.411239
    175 H80         9.5520    2.3280   -1.6960 ho        1 MOL      0.411239
    176 O26         6.3020    3.6670   -2.4950 oh        1 MOL     -0.845653
    177 H81         7.1700    4.0070   -2.7050 ho        1 MOL      0.411239
    178 H82         5.6930    4.2300   -2.9710 ho        1 MOL      0.411239
    179 O27         6.8300    0.7850   -3.5730 oh        1 MOL     -0.845653
    180 H83         7.4950    1.1220   -4.1780 ho        1 MOL      0.411239
    181 H84         6.2510    0.2640   -4.1190 ho        1 MOL      0.411239
@<TRIPOS>BOND
     1    1    2 1   
     2    1    4 1   
     3    1    5 1   
     4    1    6 1   
     5    2    3 2   
     6    2    7 1   
     7    7    8 1   
     8    7   15 1   
     9    8    9 1   
    10    8   11 1   
    11    8   16 1   
    12    9   10 2   
    13    9   19 1   
    14   11   12 1   
    15   11   17 1   
    16   11   18 1   
    17   12   13 1   
    18   12   14 1   
    19   19   20 1   
    20   19   24 1   
    21   20   21 1   
    22   20   23 1   
    23   20   25 1   
    24   21   22 2   
    25   21   29 1   
    26   23   26 1   
    27   23   27 1   
    28   23   28 1   
    29   29   30 1   
    30   29   37 1   
    31   30   31 1   
    32   30   33 1   
    33   30   38 1   
    34   31   32 2   
    35   31   41 1   
    36   33   34 1   
    37   33   39 1   
    38   33   40 1   
    39   34   35 1   
    40   34   36 1   
    41   41   42 1   
    42   41   45 1   
    43   42   43 1   
    44   42   46 1   
    45   42   47 1   
    46   43   44 2   
    47   43   48 1   
    48   48   49 1   
    49   48   56 1   
    50   49   50 1   
    51   49   52 1   
    52   49   57 1   
    53   50   51 2   
    54   50   62 1   
    55   52   53 1   
    56   52   58 1   
    57   52   59 1   
    58   53   54 1   
    59   53   55 2   
    60   54   60 1   
    61   54   61 1   
    62   62   63 1   
    63   62   66 1   
    64   63   64 1   
    65   63   67 1   
    66   63   68 1   
    67   64   65 2   
    68   64   69 1   
    69   69   70 1   
    70   69   76 1   
    71   70   71 1   
    72   70   73 1   
    73   70   77 1   
    74   71   72 2   
    75   71   83 1   
    76   73   74 1   
    77   73   75 1   
    78   73   78 1   
    79   74   80 1   
    80   74   81 1   
    81   74   82 1   
    82   75   79 1   
    83   83   84 1   
    84   83   91 1   
    85   84   85 1   
    86   84   87 1   
    87   84   92 1   
    88   85   86 2   
    89   85  102 1   
    90   87   88 1   
    91   87   89 1   
    92   87   93 1   
    93   88   90 1   
    94   88   94 1   
    95   88   95 1   
    96   89   96 1   
    97   89   97 1   
    98   89   98 1   
    99   90   99 1   
   100   90  100 1   
   101   90  101 1   
   102  102  103 1   
   103  102  110 1   
   104  103  104 1   
   105  103  106 1   
   106  103  111 1   
   107  104  105 2   
   108  104  114 1   
   109  106  107 1   
   110  106  112 1   
   111  106  113 1   
   112  107  108 1   
   113  107  109 1   
   114  114  115 1   
   115  114  125 1   
   116  115  116 1   
   117  115  118 1   
   118  115  126 1   
   119  116  117 2   
   120  116  134 1   
   121  118  119 1   
   122  118  127 1   
   123  118  128 1   
   124  119  120 ar  
   125  119  121 ar  
   126  120  122 ar  
   127  120  129 1   
   128  121  123 ar  
   129  121  130 1   
   130  122  124 ar  
   131  122  131 1   
   132  123  124 ar  
   133  123  132 1   
   134  124  133 1   
   135  134  135 1   
   136  134  140 1   
   137  135  136 1   
   138  135  138 1   
   139  135  141 1   
   140  136  137 2   
   141  136  148 1   
   142  138  139 1   
   143  138  142 1   
   144  138  143 1   
   145  139  140 1   
   146  139  144 1   
   147  139  145 1   
   148  140  146 1   
   149  140  147 1   
   150  148  149 1   
   151  148  157 1   
   152  149  150 1   
   153  149  152 1   
   154  149  158 1   
   155  150  151 2   
   156  150  163 1   
   157  152  153 1   
   158  152  159 1   
   159  152  160 1   
   160  153  154 1   
   161  153  161 1   
   162  153  162 1   
   163  154  155 1   
   164  154  156 1   
   165  163  164 1   
   166  163  168 1   
   167  164  165 1   
   168  164  166 1   
   169  164  167 1   
   170  170  171 1   
   171  170  172 1   
   172  173  174 1   
   173  173  175 1   
   174  176  177 1   
   175  176  178 1   
   176  179  180 1   
   177  179  181 1   
@<TRIPOS>SUBSTRUCTURE
     1 MOL         1 TEMP              0 ****  ****    0 ROOT
