@<TRIPOS>MOLECULE
MOL
  195   189     1     0     0
SMALL
resp


@<TRIPOS>ATOM
      1 C1         -0.7730   -4.8840    2.2730 c3        1 MOL     -0.180190
      2 C2          0.2470   -4.7820    1.1620 c         1 MOL      0.488661
      3 O1          0.9490   -3.8180    1.1180 o         1 MOL     -0.480852
      4 H1         -0.4820   -5.6770    2.9610 hc        1 MOL      0.022373
      5 H2         -0.8220   -3.9370    2.8110 hc        1 MOL      0.022373
      6 H3         -1.7520   -5.1120    1.8490 hc        1 MOL      0.022373
      7 N1          0.3140   -5.7240    0.2550 n         1 MOL     -0.360470
      8 C3          1.1660   -5.6420   -0.9060 c3        1 MOL     -0.021331
      9 C4          2.6900   -5.3530   -0.7430 c         1 MOL      0.664854
     10 O2          3.2710   -4.6250   -1.5490 o         1 MOL     -0.532880
     11 C5          0.5620   -4.7270   -1.9410 c3        1 MOL     -0.307596
     12 C6         -0.9590   -4.6590   -1.9210 c         1 MOL      0.771807
     13 O3         -1.5310   -3.6730   -1.4270 o         1 MOL     -0.706752
     14 O4         -1.5390   -5.6100   -2.4790 o         1 MOL     -0.706752
     15 H4         -0.1490   -6.6080    0.3900 hn        1 MOL      0.265909
     16 H5          1.2310   -6.6650   -1.2730 h1        1 MOL      0.065798
     17 H6          0.8480   -5.1010   -2.9200 hc        1 MOL      0.090583
     18 H7          0.9850   -3.7380   -1.7630 hc        1 MOL      0.090583
     19 N2          3.3290   -5.8710    0.3080 n         1 MOL     -0.515952
     20 C7          4.7550   -5.7770    0.6340 c3        1 MOL     -0.026136
     21 C8          5.6730   -6.2920   -0.5440 c         1 MOL      0.504115
     22 O5          5.6840   -7.5170   -0.7410 o         1 MOL     -0.597195
     23 C9          5.0150   -6.6410    1.9650 c3        1 MOL      0.290330
     24 C10         4.4960   -6.0730    3.3070 c3        1 MOL     -0.100976
     25 C11         6.4980   -6.9850    2.2370 c3        1 MOL     -0.352133
     26 C12         2.9600   -5.8800    3.1950 c3        1 MOL     -0.419470
     27 H8          2.6740   -6.3780    0.8970 hn        1 MOL      0.215673
     28 H9          4.8980   -4.7110    0.8120 h1        1 MOL      0.146435
     29 H10         4.4350   -7.5590    1.8140 hc        1 MOL     -0.007992
     30 H11         5.0110   -5.1500    3.5580 hc        1 MOL      0.048828
     31 H12         4.5410   -6.8610    4.0640 hc        1 MOL      0.048828
     32 H13         7.0780   -6.0610    2.3030 hc        1 MOL      0.074048
     33 H14         6.5530   -7.4920    3.1990 hc        1 MOL      0.074048
     34 H15         6.8620   -7.7660    1.5600 hc        1 MOL      0.074048
     35 H16         2.3890   -6.6750    2.7270 hc        1 MOL      0.116859
     36 H17         2.5610   -5.6060    4.1740 hc        1 MOL      0.116859
     37 H18         2.7950   -5.0110    2.5580 hc        1 MOL      0.116859
     38 N3          6.4090   -5.4330   -1.2200 n         1 MOL     -0.380530
     39 C13         6.6980   -3.9790   -0.9360 c3        1 MOL      0.031323
     40 C14         6.9970   -3.2850   -2.2820 c         1 MOL      0.633174
     41 O6          6.8160   -3.8440   -3.3370 o         1 MOL     -0.600795
     42 C15         7.9170   -3.9930   -0.0140 c3        1 MOL     -0.240637
     43 C16         8.1730   -2.6770    0.7990 c         1 MOL      0.687632
     44 O7          9.0700   -2.6520    1.7040 o         1 MOL     -0.686044
     45 O8          7.4040   -1.7070    0.4920 o         1 MOL     -0.686044
     46 H19         6.9380   -5.7650   -2.0060 hn        1 MOL      0.280220
     47 H20         5.8910   -3.4080   -0.4640 h1        1 MOL      0.065805
     48 H21         8.7720   -4.2350   -0.6460 hc        1 MOL      0.036146
     49 H22         7.8400   -4.7770    0.7290 hc        1 MOL      0.036146
     50 N4          7.3360   -2.0260   -2.2680 n         1 MOL     -0.306146
     51 C17         7.3310   -1.1220   -3.3710 c3        1 MOL     -0.175898
     52 C18         7.3280    0.3210   -2.8300 c         1 MOL      0.529202
     53 O9          8.3190    0.7720   -2.3120 o         1 MOL     -0.517030
     54 H23         7.3690   -1.6030   -1.3570 hn        1 MOL      0.212369
     55 H24         6.4710   -1.2000   -4.0320 h1        1 MOL      0.081521
     56 H25         8.2180   -1.2550   -3.9880 h1        1 MOL      0.081521
     57 N5          6.2090    1.0310   -3.0270 n         1 MOL     -0.377319
     58 C19         6.2030    2.4860   -2.8830 c3        1 MOL     -0.092023
     59 C20         6.7190    3.1190   -1.5330 c         1 MOL      0.419731
     60 O10         7.2880    4.2640   -1.4790 o         1 MOL     -0.573792
     61 C21         4.9320    3.1760   -3.3000 c3        1 MOL     -0.258693
     62 C22         3.6380    2.7070   -2.6130 c         1 MOL      0.723873
     63 O11         2.9580    1.7890   -2.9480 o         1 MOL     -0.680928
     64 O12         3.4220    3.2320   -1.4950 o         1 MOL     -0.680928
     65 H26         5.3900    0.5840   -3.4180 hn        1 MOL      0.289481
     66 H27         6.9770    2.7610   -3.5820 h1        1 MOL      0.108018
     67 H28         4.7620    2.8820   -4.3430 hc        1 MOL      0.060289
     68 H29         5.0540    4.2610   -3.2980 hc        1 MOL      0.060289
     69 N6          6.5410    2.4190   -0.4010 n         1 MOL     -0.003344
     70 C23         6.8070    2.9040    0.9250 c3        1 MOL     -0.458623
     71 C24         6.0640    4.2010    1.3440 c         1 MOL      0.609972
     72 O13         6.3130    4.7360    2.4040 o         1 MOL     -0.607403
     73 H30         6.1210    1.5080   -0.4600 hn        1 MOL      0.240225
     74 H31         7.8860    3.0590    0.9520 h1        1 MOL      0.157434
     75 H32         6.5400    2.1500    1.6640 h1        1 MOL      0.157434
     76 N7          5.0910    4.5380    0.5160 n         1 MOL      0.110591
     77 C25         4.0860    5.5690    0.7190 c3        1 MOL     -0.031852
     78 C26         3.3900    5.4820    2.0490 c         1 MOL      0.524305
     79 O14         2.9880    6.5030    2.6370 o         1 MOL     -0.544520
     80 C27         4.7040    6.9590    0.4150 c3        1 MOL     -0.057540
     81 C28         5.6620    6.9260   -0.8750 c3        1 MOL     -0.070303
     82 C29         6.1530    8.3220   -1.2840 c         1 MOL      0.646799
     83 N8          6.9140    8.4890   -2.3180 n         1 MOL     -0.803994
     84 O15         5.5770    9.3240   -0.8520 o         1 MOL     -0.589931
     85 H33         4.8650    3.9110   -0.2390 hn        1 MOL     -0.100550
     86 H34         3.2870    5.5120   -0.0190 h1        1 MOL      0.109521
     87 H35         5.3280    7.3820    1.2020 hc        1 MOL      0.014879
     88 H36         3.8740    7.6410    0.1940 hc        1 MOL      0.014879
     89 H37         5.1500    6.4750   -1.7220 hc        1 MOL      0.056986
     90 H38         6.5180    6.3240   -0.5630 hc        1 MOL      0.056986
     91 H39         7.3030    7.7120   -2.8380 hn        1 MOL      0.346908
     92 H40         6.9760    9.4100   -2.7310 hn        1 MOL      0.346908
     93 N9          3.0610    4.3140    2.5300 n         1 MOL     -0.372335
     94 C30         2.1380    4.1500    3.7350 c3        1 MOL     -0.204317
     95 C31         0.9240    3.2710    3.3700 c         1 MOL      0.772009
     96 O16         0.0830    3.0600    4.2520 o         1 MOL     -0.596190
     97 C32         2.8430    3.4720    4.9640 c3        1 MOL      0.282697
     98 C33         3.1300    2.0170    4.7270 c3        1 MOL     -0.305047
     99 C34         4.2280    4.2220    5.2120 c3        1 MOL     -0.305047
    100 H41         3.4650    3.4430    2.1870 hn        1 MOL      0.240334
    101 H42         1.7190    5.1270    3.9870 h1        1 MOL      0.119826
    102 H43         2.1600    3.5250    5.8150 hc        1 MOL     -0.024855
    103 H44         2.2600    1.3690    4.7180 hc        1 MOL      0.072992
    104 H45         3.8400    1.8970    3.9060 hc        1 MOL      0.072992
    105 H46         3.6830    1.6990    5.6080 hc        1 MOL      0.072992
    106 H47         4.6810    3.8190    6.1160 hc        1 MOL      0.072992
    107 H48         4.9680    4.1230    4.4140 hc        1 MOL      0.072992
    108 H49         4.0080    5.2650    5.4400 hc        1 MOL      0.072992
    109 N10         0.9730    2.6480    2.1600 n         1 MOL     -0.683669
    110 C35        -0.1000    1.6750    1.7670 c3        1 MOL      0.252335
    111 C36        -1.2080    2.2060    0.8550 c         1 MOL      0.663894
    112 O17        -0.9680    3.1420    0.1010 o         1 MOL     -0.528520
    113 C37         0.6110    0.4330    1.1530 c3        1 MOL     -0.106888
    114 C38        -0.2300   -0.7610    0.9260 c         1 MOL      0.467865
    115 N11        -0.2000   -1.3110   -0.2570 n         1 MOL     -0.567930
    116 O18        -1.0680   -1.1660    1.7650 o         1 MOL     -0.551867
    117 H50         1.8900    2.5220    1.7350 hn        1 MOL      0.307119
    118 H51        -0.6170    1.3430    2.6660 h1        1 MOL     -0.013951
    119 H52         1.4570    0.1430    1.7940 hc        1 MOL      0.073925
    120 H53         0.9930    0.7730    0.1910 hc        1 MOL      0.073925
    121 H54         0.4170   -0.9770   -0.9860 hn        1 MOL      0.346991
    122 H55        -0.6930   -2.1770   -0.4250 hn        1 MOL      0.346991
    123 N12        -2.3970    1.5510    0.8190 n         1 MOL     -0.866004
    124 C39        -3.2770    1.6210   -0.3490 c3        1 MOL      0.654030
    125 C40        -4.7140    1.6880    0.0390 c         1 MOL      0.636729
    126 O19        -4.9940    1.0330    0.9980 o         1 MOL     -0.638156
    127 C41        -2.7860    0.5200   -1.3770 c3        1 MOL     -0.341616
    128 C42        -3.7180    0.3180   -2.5290 ca        1 MOL      0.077635
    129 C43        -3.5800    1.1990   -3.6690 ca        1 MOL     -0.138383
    130 C44        -4.8420   -0.5420   -2.4740 ca        1 MOL     -0.138383
    131 C45        -4.5320    1.1430   -4.6830 ca        1 MOL     -0.246240
    132 C46        -5.7870   -0.6170   -3.5460 ca        1 MOL     -0.246240
    133 C47        -5.5840    0.2310   -4.6610 ca        1 MOL      0.331865
    134 O20        -6.3230    0.0680   -5.7900 oh        1 MOL     -0.507425
    135 H56        -2.4830    0.7490    1.4330 hn        1 MOL      0.381927
    136 H57        -3.1160    2.5960   -0.8160 h1        1 MOL     -0.062988
    137 H58        -2.6520   -0.4300   -0.8670 hc        1 MOL      0.093053
    138 H59        -1.8620    0.8440   -1.8460 hc        1 MOL      0.093053
    139 H60        -2.7650    1.9110   -3.7260 ha        1 MOL      0.132863
    140 H61        -5.1260   -1.0150   -1.5440 ha        1 MOL      0.132863
    141 H62        -4.5190    1.8470   -5.5100 ha        1 MOL      0.121392
    142 H63        -6.6140   -1.3000   -3.6500 ha        1 MOL      0.121392
    143 H64        -5.9910    0.7300   -6.3940 ho        1 MOL      0.352144
    144 N13        -5.5720    2.3600   -0.7510 n         1 MOL     -0.771142
    145 C48        -6.9800    2.7890   -0.4140 c3        1 MOL      0.387975
    146 C49        -7.9160    2.4530   -1.6330 c         1 MOL      0.428961
    147 O21        -8.1160    3.2940   -2.5120 o         1 MOL     -0.493474
    148 C50        -6.8930    4.3230   -0.1230 c3        1 MOL      0.190941
    149 C51        -8.2620    4.9160    0.4950 c3        1 MOL     -0.417866
    150 C52        -8.1770    6.4890    0.4920 c         1 MOL      0.785637
    151 O22        -7.6930    6.9690   -0.5310 o         1 MOL     -0.698843
    152 O23        -8.6630    7.1880    1.3900 o         1 MOL     -0.698843
    153 H65        -5.1490    2.8250   -1.5410 hn        1 MOL      0.312578
    154 H66        -7.2860    2.2550    0.4900 h1        1 MOL     -0.034683
    155 H67        -6.5970    4.8130   -1.0450 hc        1 MOL     -0.031158
    156 H68        -6.0730    4.4270    0.5970 hc        1 MOL     -0.031158
    157 H69        -8.3120    4.4840    1.4910 hc        1 MOL      0.074494
    158 H70        -9.0720    4.5860   -0.1560 hc        1 MOL      0.074494
    159 N14        -8.5680    1.2510   -1.7480 n         1 MOL     -0.615465
    160 C53        -8.4670    0.0450   -0.9100 c3        1 MOL      0.307275
    161 C54        -9.0480    0.1400    0.5110 c         1 MOL      0.518835
    162 O24       -10.1620    0.6110    0.6510 o         1 MOL     -0.571420
    163 C55        -9.0630   -1.1270   -1.6820 c3        1 MOL     -0.139075
    164 C56        -9.0950   -2.5430   -1.0790 c3        1 MOL      0.095382
    165 C57        -7.8680   -2.9660   -0.3500 c         1 MOL      0.429828
    166 O25        -6.7140   -3.0710   -0.8320 o         1 MOL     -0.680224
    167 O26        -7.9690   -3.1010    0.8740 o         1 MOL     -0.680224
    168 H71        -9.0900    1.1910   -2.6150 hn        1 MOL      0.321074
    169 H72        -7.4110   -0.2040   -0.8200 h1        1 MOL      0.042575
    170 H73        -8.4550   -1.2250   -2.5930 hc        1 MOL      0.043372
    171 H74       -10.0380   -0.8290   -2.0670 hc        1 MOL      0.043372
    172 H75        -9.1930   -3.2430   -1.9110 hc        1 MOL     -0.019724
    173 H76        -9.9460   -2.6180   -0.3920 hc        1 MOL     -0.019724
    174 N15        -8.2680   -0.1750    1.5830 n         1 MOL     -0.350826
    175 C58        -8.6900    0.0320    2.9970 c3        1 MOL     -0.375679
    176 H77        -8.6930   -0.9250    3.5190 h1        1 MOL      0.129771
    177 H78        -7.9940    0.7120    3.4890 h1        1 MOL      0.129771
    178 H79        -9.6930    0.4590    3.0190 h1        1 MOL      0.129771
    179 H80        -7.4680   -0.7610    1.3940 hn        1 MOL      0.478788
    180 Ca1        -5.3940   -3.9470    1.3140 Ca        1 MOL      1.793274
    181 O27        -3.0860   -2.5060    0.6660 oh        1 MOL     -0.976147
    182 H81        -2.5530   -3.0320    0.0780 ho        1 MOL      0.450207
    183 H82        -2.4590   -1.8980    1.0700 ho        1 MOL      0.450207
    184 O28        -5.7330   -1.3180    2.1430 oh        1 MOL     -0.976147
    185 H83        -5.5700   -0.4650    1.7450 ho        1 MOL      0.450207
    186 H84        -5.5440   -1.1900    3.0740 ho        1 MOL      0.450207
    187 O29        -4.1500   -4.6730   -0.9650 oh        1 MOL     -0.976147
    188 H85        -3.2120   -4.5430   -1.0950 ho        1 MOL      0.450207
    189 H86        -4.5270   -4.6370   -1.8470 ho        1 MOL      0.450207
    190 O30        -7.1900   -4.2740    3.3050 oh        1 MOL     -0.976147
    191 H87        -6.8780   -4.5940    4.1520 ho        1 MOL      0.450207
    192 H88        -8.1250   -4.1310    3.4340 ho        1 MOL      0.450207
    193 O31        -4.0920   -3.1070    3.4130 oh        1 MOL     -0.976147
    194 H89        -4.0730   -3.5530    4.2590 ho        1 MOL      0.450207
    195 H90        -3.5040   -2.3600    3.5160 ho        1 MOL      0.450207
@<TRIPOS>BOND
     1    1    2 1   
     2    1    4 1   
     3    1    5 1   
     4    1    6 1   
     5    2    3 2   
     6    2    7 1   
     7    7    8 1   
     8    7   15 1   
     9    8    9 1   
    10    8   11 1   
    11    8   16 1   
    12    9   10 2   
    13    9   19 1   
    14   11   12 1   
    15   11   17 1   
    16   11   18 1   
    17   12   13 1   
    18   12   14 1   
    19   19   20 1   
    20   19   27 1   
    21   20   21 1   
    22   20   23 1   
    23   20   28 1   
    24   21   22 2   
    25   21   38 1   
    26   23   24 1   
    27   23   25 1   
    28   23   29 1   
    29   24   26 1   
    30   24   30 1   
    31   24   31 1   
    32   25   32 1   
    33   25   33 1   
    34   25   34 1   
    35   26   35 1   
    36   26   36 1   
    37   26   37 1   
    38   38   39 1   
    39   38   46 1   
    40   39   40 1   
    41   39   42 1   
    42   39   47 1   
    43   40   41 2   
    44   40   50 1   
    45   42   43 1   
    46   42   48 1   
    47   42   49 1   
    48   43   44 1   
    49   43   45 1   
    50   50   51 1   
    51   50   54 1   
    52   51   52 1   
    53   51   55 1   
    54   51   56 1   
    55   52   53 2   
    56   52   57 1   
    57   57   58 1   
    58   57   65 1   
    59   58   59 1   
    60   58   61 1   
    61   58   66 1   
    62   59   60 2   
    63   59   69 1   
    64   61   62 1   
    65   61   67 1   
    66   61   68 1   
    67   62   63 1   
    68   62   64 1   
    69   69   70 1   
    70   69   73 1   
    71   70   71 1   
    72   70   74 1   
    73   70   75 1   
    74   71   72 2   
    75   71   76 1   
    76   76   77 1   
    77   76   85 1   
    78   77   78 1   
    79   77   80 1   
    80   77   86 1   
    81   78   79 2   
    82   78   93 1   
    83   80   81 1   
    84   80   87 1   
    85   80   88 1   
    86   81   82 1   
    87   81   89 1   
    88   81   90 1   
    89   82   83 1   
    90   82   84 2   
    91   83   91 1   
    92   83   92 1   
    93   93   94 1   
    94   93  100 1   
    95   94   95 1   
    96   94   97 1   
    97   94  101 1   
    98   95   96 2   
    99   95  109 1   
   100   97   98 1   
   101   97   99 1   
   102   97  102 1   
   103   98  103 1   
   104   98  104 1   
   105   98  105 1   
   106   99  106 1   
   107   99  107 1   
   108   99  108 1   
   109  109  110 1   
   110  109  117 1   
   111  110  111 1   
   112  110  113 1   
   113  110  118 1   
   114  111  112 2   
   115  111  123 1   
   116  113  114 1   
   117  113  119 1   
   118  113  120 1   
   119  114  115 1   
   120  114  116 2   
   121  115  121 1   
   122  115  122 1   
   123  123  124 1   
   124  123  135 1   
   125  124  125 1   
   126  124  127 1   
   127  124  136 1   
   128  125  126 2   
   129  125  144 1   
   130  127  128 1   
   131  127  137 1   
   132  127  138 1   
   133  128  129 ar  
   134  128  130 ar  
   135  129  131 ar  
   136  129  139 1   
   137  130  132 ar  
   138  130  140 1   
   139  131  133 ar  
   140  131  141 1   
   141  132  133 ar  
   142  132  142 1   
   143  133  134 1   
   144  134  143 1   
   145  144  145 1   
   146  144  153 1   
   147  145  146 1   
   148  145  148 1   
   149  145  154 1   
   150  146  147 2   
   151  146  159 1   
   152  148  149 1   
   153  148  155 1   
   154  148  156 1   
   155  149  150 1   
   156  149  157 1   
   157  149  158 1   
   158  150  151 1   
   159  150  152 1   
   160  159  160 1   
   161  159  168 1   
   162  160  161 1   
   163  160  163 1   
   164  160  169 1   
   165  161  162 2   
   166  161  174 1   
   167  163  164 1   
   168  163  170 1   
   169  163  171 1   
   170  164  165 1   
   171  164  172 1   
   172  164  173 1   
   173  165  166 1   
   174  165  167 1   
   175  174  175 1   
   176  174  179 1   
   177  175  176 1   
   178  175  177 1   
   179  175  178 1   
   180  181  182 1   
   181  181  183 1   
   182  184  185 1   
   183  184  186 1   
   184  187  188 1   
   185  187  189 1   
   186  190  191 1   
   187  190  192 1   
   188  193  194 1   
   189  193  195 1   
@<TRIPOS>SUBSTRUCTURE
     1 MOL         1 TEMP              0 ****  ****    0 ROOT
