@<TRIPOS>MOLECULE
MOL
  188   182     1     0     0
SMALL
resp


@<TRIPOS>ATOM
      1 C1        -10.6300    6.1160   -0.2340 c3        1 MOL     -0.397900
      2 C2        -11.0240    4.7820   -0.8210 c         1 MOL      0.736113
      3 O1        -11.0770    4.6490   -2.0380 o         1 MOL     -0.579611
      4 H1        -10.2260    5.9660    0.7670 hc        1 MOL      0.095428
      5 H2         -9.8740    6.5820   -0.8650 hc        1 MOL      0.095428
      6 H3        -11.5060    6.7630   -0.1790 hc        1 MOL      0.095428
      7 N1        -11.1070    3.7690    0.0560 n         1 MOL     -0.635872
      8 C3        -11.3160    2.3590   -0.3310 c3        1 MOL      0.192346
      9 C4        -10.2240    1.4530    0.2970 c         1 MOL      0.493585
     10 O2        -10.1420    1.4190    1.5110 o         1 MOL     -0.538125
     11 C5        -12.6890    1.8380    0.1320 c3        1 MOL     -0.091197
     12 C6        -13.0600    0.4690   -0.5560 c         1 MOL      0.665269
     13 O3        -14.2870    0.1830   -0.4750 o         1 MOL     -0.707523
     14 O4        -12.2130   -0.2580   -1.1140 o         1 MOL     -0.707523
     15 H4        -10.9160    3.8350    1.0460 hn        1 MOL      0.324746
     16 H5        -11.2680    2.3300   -1.4170 h1        1 MOL      0.044950
     17 H6        -13.5520    2.4870   -0.0300 hc        1 MOL      0.010500
     18 H7        -12.5460    1.7040    1.2090 hc        1 MOL      0.010500
     19 N2         -9.3570    0.8280   -0.5110 n         1 MOL     -0.513566
     20 C7         -8.1910    0.0660    0.0380 c3        1 MOL      0.165973
     21 C8         -7.0110    0.1210   -0.9130 c         1 MOL      0.499062
     22 O5         -7.1620    0.0070   -2.1420 o         1 MOL     -0.514044
     23 C9         -8.5870   -1.4010    0.2560 c3        1 MOL     -0.054205
     24 C10        -9.6610   -1.6110    1.2960 c3        1 MOL     -0.029537
     25 C11       -10.0760   -3.0720    1.4940 c3        1 MOL     -0.000660
     26 C12       -10.6900   -3.7160    0.2300 c3        1 MOL      0.094436
     27 N3        -10.6690   -5.1980    0.3180 n4        1 MOL     -0.348017
     28 H8         -9.5300    0.8760   -1.4990 hn        1 MOL      0.298401
     29 H9         -7.9470    0.5950    0.9620 h1        1 MOL      0.059655
     30 H10        -7.6960   -1.9500    0.5740 hc        1 MOL     -0.001201
     31 H11        -8.9300   -1.8970   -0.6560 hc        1 MOL     -0.001201
     32 H12       -10.5120   -0.9550    1.1050 hc        1 MOL      0.042565
     33 H13        -9.1980   -1.1530    2.1750 hc        1 MOL      0.042565
     34 H14       -10.8150   -3.1350    2.2860 hc        1 MOL      0.009779
     35 H15        -9.2490   -3.7360    1.7540 hc        1 MOL      0.009779
     36 H16       -10.2250   -3.3550   -0.6870 hx        1 MOL      0.104805
     37 H17       -11.7380   -3.4370    0.0860 hx        1 MOL      0.104805
     38 H18       -10.6550   -5.6130   -0.6080 hn        1 MOL      0.301001
     39 H19        -9.8560   -5.6350    0.7340 hn        1 MOL      0.301001
     40 H20       -11.4360   -5.6320    0.8080 hn        1 MOL      0.301001
     41 N4         -5.8050    0.2810   -0.3960 n         1 MOL     -0.445790
     42 C13        -4.5360    0.3930   -1.0840 c3        1 MOL     -0.000418
     43 C14        -4.1240   -0.8880   -1.8480 c         1 MOL      0.588692
     44 O6         -4.3510   -1.9330   -1.3130 o         1 MOL     -0.493697
     45 C15        -3.4750    0.7840   -0.0350 c3        1 MOL     -0.044889
     46 C16        -2.0840    0.9980   -0.6240 c         1 MOL      0.675134
     47 O7         -1.3310   -0.0280   -0.7300 o         1 MOL     -0.752245
     48 O8         -1.6770    2.1370   -1.0480 o         1 MOL     -0.752245
     49 H21        -5.8120    0.2460    0.6140 hn        1 MOL      0.267180
     50 H22        -4.5760    1.1620   -1.8510 h1        1 MOL      0.072036
     51 H23        -3.4560   -0.0570    0.6580 hc        1 MOL      0.032282
     52 H24        -3.7790    1.6840    0.5160 hc        1 MOL      0.032282
     53 N5         -3.4900   -0.7500   -3.0020 n         1 MOL     -0.441585
     54 C17        -3.1180   -1.8560   -3.9390 c3        1 MOL     -0.153894
     55 C18        -2.2270   -2.9200   -3.3070 c         1 MOL      0.498557
     56 O9         -2.1240   -3.9940   -3.8690 o         1 MOL     -0.558255
     57 H25        -3.1680    0.1890   -3.2170 hn        1 MOL      0.258743
     58 H26        -2.6690   -1.3910   -4.8170 h1        1 MOL      0.134706
     59 H27        -4.0500   -2.3000   -4.3070 h1        1 MOL      0.134706
     60 N6         -1.6510   -2.6660   -2.1640 n         1 MOL     -0.203006
     61 C19        -0.8530   -3.7110   -1.4710 c3        1 MOL     -0.122990
     62 C20        -0.9210   -3.5980    0.0950 c         1 MOL      0.420037
     63 O10        -0.1070   -4.0060    0.8840 o         1 MOL     -0.509828
     64 C21         0.5910   -3.7220   -2.0150 c3        1 MOL     -0.096781
     65 C22         1.3720   -2.4530   -2.1460 c         1 MOL      0.581014
     66 N7          2.5300   -2.5570   -2.7160 n         1 MOL     -0.741441
     67 O11         0.9990   -1.4150   -1.6350 o         1 MOL     -0.525505
     68 H28        -1.8710   -1.8570   -1.6010 hn        1 MOL      0.228314
     69 H29        -1.2610   -4.6800   -1.7290 h1        1 MOL      0.138134
     70 H30         0.5880   -4.2670   -2.9580 hc        1 MOL      0.088179
     71 H31         1.1240   -4.5120   -1.4780 hc        1 MOL      0.088179
     72 H32         2.7750   -3.4570   -3.1050 hn        1 MOL      0.351296
     73 H33         3.0020   -1.7240   -3.0220 hn        1 MOL      0.351296
     74 N8         -2.1030   -3.0540    0.5050 n         1 MOL     -0.076310
     75 C23        -2.5250   -2.9390    1.9420 c3        1 MOL     -0.378742
     76 C24        -1.9720   -1.7710    2.7230 c         1 MOL      0.619444
     77 O12        -2.3690   -1.6320    3.9200 o         1 MOL     -0.555855
     78 H34        -2.7640   -2.9020   -0.2500 hn        1 MOL      0.113069
     79 H35        -2.3030   -3.8240    2.5340 h1        1 MOL      0.157604
     80 H36        -3.5950   -2.7520    1.9060 h1        1 MOL      0.157604
     81 N9         -1.0460   -0.9750    2.1380 n         1 MOL     -0.384793
     82 C25        -0.1710   -0.0060    2.8660 c3        1 MOL     -0.057568
     83 C26         1.1020    0.3860    2.0690 c         1 MOL      0.329810
     84 O13         1.0120    0.6320    0.8820 o         1 MOL     -0.407587
     85 C27        -0.9910    1.2230    3.1490 c3        1 MOL     -0.112275
     86 C28        -0.2100    2.3550    3.7600 ca        1 MOL     -0.013014
     87 C29         0.4240    2.1910    5.0090 ca        1 MOL     -0.064476
     88 C30         0.0860    3.5380    3.0180 ca        1 MOL     -0.064476
     89 C31         1.3050    3.2010    5.4790 ca        1 MOL     -0.411416
     90 C32         1.0490    4.5020    3.4190 ca        1 MOL     -0.411416
     91 C33         1.5930    4.3640    4.6990 ca        1 MOL      0.491655
     92 O14         2.4310    5.2790    5.1090 oh        1 MOL     -0.476484
     93 H37        -0.8280   -1.0740    1.1580 hn        1 MOL      0.293403
     94 H38         0.0580   -0.4910    3.8090 h1        1 MOL      0.108326
     95 H39        -1.7690    0.9890    3.8910 hc        1 MOL      0.081113
     96 H40        -1.5860    1.5720    2.3080 hc        1 MOL      0.081113
     97 H41         0.2450    1.2970    5.5900 ha        1 MOL      0.121308
     98 H42        -0.4960    3.7220    2.1320 ha        1 MOL      0.121308
     99 H43         1.5620    3.0810    6.5250 ha        1 MOL      0.187267
    100 H44         1.3270    5.3230    2.7830 ha        1 MOL      0.187267
    101 H45         2.6590    5.8510    4.3690 ho        1 MOL      0.363786
    102 N10         2.2520    0.2990    2.7730 n         1 MOL     -0.274712
    103 C34         3.6390    0.3760    2.2600 c3        1 MOL     -0.308437
    104 C35         3.9940   -0.9140    1.4270 c         1 MOL      0.391914
    105 O15         4.5870   -0.8470    0.3860 o         1 MOL     -0.426269
    106 C36         4.5810    0.6160    3.4980 c3        1 MOL      0.096467
    107 C37         4.3980    2.0540    3.9270 c3        1 MOL      0.154339
    108 C38         6.0430    0.2310    3.1010 c3        1 MOL     -0.073851
    109 C39         5.1180    2.3400    5.2240 c3        1 MOL     -0.313831
    110 H46         2.1350    0.0990    3.7600 hn        1 MOL      0.259524
    111 H47         3.7500    1.2020    1.5610 h1        1 MOL      0.195367
    112 H48         4.3520   -0.0460    4.3380 hc        1 MOL      0.012207
    113 H49         3.3600    2.2250    4.2010 hc        1 MOL     -0.006203
    114 H50         4.6160    2.6910    3.0690 hc        1 MOL     -0.006203
    115 H51         6.4240    0.4800    2.1160 hc        1 MOL      0.021462
    116 H52         6.7420    0.6380    3.8270 hc        1 MOL      0.021462
    117 H53         6.1760   -0.8420    3.2700 hc        1 MOL      0.021462
    118 H54         6.2020    2.2400    5.0970 hc        1 MOL      0.079966
    119 H55         4.8100    3.3160    5.5770 hc        1 MOL      0.079966
    120 H56         4.7330    1.7150    6.0310 hc        1 MOL      0.079966
    121 N11         3.6500   -2.0850    1.9500 n         1 MOL     -0.222815
    122 C40         3.7170   -3.4440    1.3370 c3        1 MOL      0.014650
    123 C41         5.1460   -3.8100    0.8400 c         1 MOL      0.464945
    124 O16         5.2280   -4.3960   -0.2330 o         1 MOL     -0.511051
    125 C42         3.2760   -4.4680    2.3520 c3        1 MOL     -0.057054
    126 O17         4.2320   -4.5850    3.4500 oh        1 MOL     -0.642901
    127 H57         3.3120   -2.0050    2.9050 hn        1 MOL      0.237560
    128 H58         3.0740   -3.5760    0.4740 h1        1 MOL      0.062237
    129 H59         3.2110   -5.3680    1.7540 h1        1 MOL      0.120005
    130 H60         2.2800   -4.1890    2.7120 h1        1 MOL      0.120005
    131 H61         3.9150   -5.2190    4.0940 ho        1 MOL      0.436221
    132 N12         6.2330   -3.4870    1.5390 n         1 MOL     -0.157807
    133 C43         7.6550   -3.6880    1.1590 c3        1 MOL      0.113191
    134 C44         7.9940   -3.1590   -0.1880 c         1 MOL      0.521041
    135 O18         8.8080   -3.6520   -0.9740 o         1 MOL     -0.531839
    136 C45         8.0500   -5.1390    1.4390 c3        1 MOL     -0.379226
    137 H62         6.1130   -3.2590    2.5200 hn        1 MOL      0.216817
    138 H63         8.1710   -3.0360    1.8560 h1        1 MOL      0.065325
    139 H64         7.8120   -5.2890    2.4940 hc        1 MOL      0.110896
    140 H65         7.5210   -5.8890    0.8700 hc        1 MOL      0.110896
    141 H66         9.1090   -5.2650    1.1900 hc        1 MOL      0.110896
    142 N13         7.3380   -2.0610   -0.5020 n         1 MOL     -0.511173
    143 C46         7.3770   -1.1450   -1.6180 c3        1 MOL      0.526622
    144 C47         7.7870    0.2580   -1.2400 c         1 MOL      0.498883
    145 O19         7.2780    0.7040   -0.2260 o         1 MOL     -0.526161
    146 C48         6.1260   -1.1430   -2.4050 c3        1 MOL     -0.159055
    147 H67         6.6700   -1.7210    0.1790 hn        1 MOL      0.088364
    148 H68         8.1540   -1.5110   -2.2980 h1        1 MOL     -0.055385
    149 H69         6.3150   -0.7650   -3.4100 hc        1 MOL      0.023311
    150 H70         5.8440   -2.1920   -2.5100 hc        1 MOL      0.023311
    151 H71         5.3690   -0.4970   -1.9470 hc        1 MOL      0.023311
    152 N14         8.5600    0.9660   -2.0790 n         1 MOL     -0.561104
    153 C49         9.0930    2.3730   -1.9190 c3        1 MOL      0.112388
    154 C50         9.6940    2.6050   -0.5210 c         1 MOL      0.331336
    155 O20         9.7270    3.7280   -0.0080 o         1 MOL     -0.491554
    156 C51         8.0110    3.4210   -2.2050 c3        1 MOL     -0.107591
    157 C52         7.7350    3.4640   -3.7120 c3        1 MOL      0.061811
    158 C53         8.8580    3.9880   -4.5460 c         1 MOL      0.647231
    159 O21         9.3560    3.2210   -5.3790 o         1 MOL     -0.677445
    160 O22         9.3300    5.1070   -4.3560 o         1 MOL     -0.677445
    161 H72         8.9810    0.4550   -2.8460 hn        1 MOL      0.293824
    162 H73         9.9670    2.4620   -2.5700 h1        1 MOL      0.125089
    163 H74         8.3100    4.4650   -2.0490 hc        1 MOL      0.054199
    164 H75         7.0850    3.1930   -1.6800 hc        1 MOL      0.054199
    165 H76         6.8060    4.0080   -3.8980 hc        1 MOL     -0.082562
    166 H77         7.4440    2.4970   -4.1060 hc        1 MOL     -0.082562
    167 N15        10.2670    1.6210    0.1410 n         1 MOL     -0.195334
    168 C54        10.8580    1.6610    1.4850 c3        1 MOL      0.010215
    169 H78        10.5050    0.8070    2.0630 h1        1 MOL      0.042255
    170 H79        11.9450    1.6190    1.4060 h1        1 MOL      0.042255
    171 H80        10.5650    2.5830    1.9850 h1        1 MOL      0.042255
    172 H81        10.2120    0.7060   -0.2940 hn        1 MOL      0.162769
    173 Ca1         0.6930    1.1520   -1.6860 Ca        1 MOL      1.786737
    174 O23         1.4560    3.4400   -0.4840 oh        1 MOL     -0.880575
    175 H82         2.2120    4.0120   -0.6140 ho        1 MOL      0.429649
    176 H83         0.7470    4.0280   -0.2370 ho        1 MOL      0.429649
    177 O24         3.3810    1.1350   -1.3090 oh        1 MOL     -0.880575
    178 H84         4.0330    1.8000   -1.0870 ho        1 MOL      0.429649
    179 H85         3.7420    0.3240   -0.9680 ho        1 MOL      0.429649
    180 O25        -1.0570    0.8070   -3.6670 oh        1 MOL     -0.880575
    181 H86        -0.9930    0.4290   -4.5480 ho        1 MOL      0.429649
    182 H87        -1.7220    1.4850   -3.7450 ho        1 MOL      0.429649
    183 O26         1.6370    0.0990   -4.2000 oh        1 MOL     -0.880575
    184 H88         1.5330    0.6440   -4.9720 ho        1 MOL      0.429649
    185 H89         2.4580   -0.3680   -4.3440 ho        1 MOL      0.429649
    186 O27         2.0100    2.8180   -3.2810 oh        1 MOL     -0.880575
    187 H90         2.5890    2.4840   -3.9670 ho        1 MOL      0.429649
    188 H91         2.2260    3.7430   -3.2060 ho        1 MOL      0.429649
@<TRIPOS>BOND
     1    1    2 1   
     2    1    4 1   
     3    1    5 1   
     4    1    6 1   
     5    2    3 2   
     6    2    7 1   
     7    7    8 1   
     8    7   15 1   
     9    8    9 1   
    10    8   11 1   
    11    8   16 1   
    12    9   10 2   
    13    9   19 1   
    14   11   12 1   
    15   11   17 1   
    16   11   18 1   
    17   12   13 1   
    18   12   14 1   
    19   19   20 1   
    20   19   28 1   
    21   20   21 1   
    22   20   23 1   
    23   20   29 1   
    24   21   22 2   
    25   21   41 1   
    26   23   24 1   
    27   23   30 1   
    28   23   31 1   
    29   24   25 1   
    30   24   32 1   
    31   24   33 1   
    32   25   26 1   
    33   25   34 1   
    34   25   35 1   
    35   26   27 1   
    36   26   36 1   
    37   26   37 1   
    38   27   38 1   
    39   27   39 1   
    40   27   40 1   
    41   41   42 1   
    42   41   49 1   
    43   42   43 1   
    44   42   45 1   
    45   42   50 1   
    46   43   44 2   
    47   43   53 1   
    48   45   46 1   
    49   45   51 1   
    50   45   52 1   
    51   46   47 1   
    52   46   48 1   
    53   53   54 1   
    54   53   57 1   
    55   54   55 1   
    56   54   58 1   
    57   54   59 1   
    58   55   56 2   
    59   55   60 1   
    60   60   61 1   
    61   60   68 1   
    62   61   62 1   
    63   61   64 1   
    64   61   69 1   
    65   62   63 2   
    66   62   74 1   
    67   64   65 1   
    68   64   70 1   
    69   64   71 1   
    70   65   66 1   
    71   65   67 2   
    72   66   72 1   
    73   66   73 1   
    74   74   75 1   
    75   74   78 1   
    76   75   76 1   
    77   75   79 1   
    78   75   80 1   
    79   76   77 2   
    80   76   81 1   
    81   81   82 1   
    82   81   93 1   
    83   82   83 1   
    84   82   85 1   
    85   82   94 1   
    86   83   84 2   
    87   83  102 1   
    88   85   86 1   
    89   85   95 1   
    90   85   96 1   
    91   86   87 ar  
    92   86   88 ar  
    93   87   89 ar  
    94   87   97 1   
    95   88   90 ar  
    96   88   98 1   
    97   89   91 ar  
    98   89   99 1   
    99   90   91 ar  
   100   90  100 1   
   101   91   92 1   
   102   92  101 1   
   103  102  103 1   
   104  102  110 1   
   105  103  104 1   
   106  103  106 1   
   107  103  111 1   
   108  104  105 2   
   109  104  121 1   
   110  106  107 1   
   111  106  108 1   
   112  106  112 1   
   113  107  109 1   
   114  107  113 1   
   115  107  114 1   
   116  108  115 1   
   117  108  116 1   
   118  108  117 1   
   119  109  118 1   
   120  109  119 1   
   121  109  120 1   
   122  121  122 1   
   123  121  127 1   
   124  122  123 1   
   125  122  125 1   
   126  122  128 1   
   127  123  124 2   
   128  123  132 1   
   129  125  126 1   
   130  125  129 1   
   131  125  130 1   
   132  126  131 1   
   133  132  133 1   
   134  132  137 1   
   135  133  134 1   
   136  133  136 1   
   137  133  138 1   
   138  134  135 2   
   139  134  142 1   
   140  136  139 1   
   141  136  140 1   
   142  136  141 1   
   143  142  143 1   
   144  142  147 1   
   145  143  144 1   
   146  143  146 1   
   147  143  148 1   
   148  144  145 2   
   149  144  152 1   
   150  146  149 1   
   151  146  150 1   
   152  146  151 1   
   153  152  153 1   
   154  152  161 1   
   155  153  154 1   
   156  153  156 1   
   157  153  162 1   
   158  154  155 2   
   159  154  167 1   
   160  156  157 1   
   161  156  163 1   
   162  156  164 1   
   163  157  158 1   
   164  157  165 1   
   165  157  166 1   
   166  158  159 1   
   167  158  160 1   
   168  167  168 1   
   169  167  172 1   
   170  168  169 1   
   171  168  170 1   
   172  168  171 1   
   173  174  175 1   
   174  174  176 1   
   175  177  178 1   
   176  177  179 1   
   177  180  181 1   
   178  180  182 1   
   179  183  184 1   
   180  183  185 1   
   181  186  187 1   
   182  186  188 1   
@<TRIPOS>SUBSTRUCTURE
     1 MOL         1 TEMP              0 ****  ****    0 ROOT
