@<TRIPOS>MOLECULE
MOL
  182   178     1     0     0
SMALL
resp


@<TRIPOS>ATOM
      1 C1          0.0190   -3.1050    6.1220 c3        1 MOL     -0.408621
      2 C2          0.2170   -3.0230    4.5880 c         1 MOL      0.761424
      3 O1         -0.7180   -2.8300    3.8060 o         1 MOL     -0.606429
      4 H1          0.8680   -2.6390    6.6230 hc        1 MOL      0.119877
      5 H2         -0.8970   -2.5830    6.3990 hc        1 MOL      0.119877
      6 H3         -0.0510   -4.1490    6.4250 hc        1 MOL      0.119877
      7 N1          1.5420   -3.0680    4.2010 n         1 MOL     -0.734165
      8 C3          1.8690   -2.9150    2.7650 c3        1 MOL      0.308366
      9 C4          1.7590   -4.2400    2.0520 c         1 MOL      0.481867
     10 O2          1.9470   -5.3080    2.5580 o         1 MOL     -0.553585
     11 C5          3.2460   -2.2290    2.7090 c3        1 MOL     -0.187439
     12 C6          3.3860   -1.3700    1.4870 c         1 MOL      0.469369
     13 O3          3.8020   -0.2200    1.6250 o         1 MOL     -0.600172
     14 O4          3.1740   -1.8700    0.3320 o         1 MOL     -0.600172
     15 H4          2.2310   -3.1870    4.9230 hn        1 MOL      0.368530
     16 H5          1.2500   -2.2040    2.2100 h1        1 MOL     -0.098220
     17 H6          3.9160   -3.0900    2.6510 hc        1 MOL      0.088900
     18 H7          3.4520   -1.5290    3.5200 hc        1 MOL      0.088900
     19 N2          1.6000   -4.2060    0.7440 n         1 MOL     -0.159819
     20 C7          1.5570   -5.3980   -0.1590 c3        1 MOL     -0.054547
     21 C8          2.8350   -5.4900   -1.0490 c         1 MOL      0.559365
     22 O5          3.1990   -6.5210   -1.5270 o         1 MOL     -0.577033
     23 C9          0.3110   -5.3930   -1.0260 c3        1 MOL      0.008165
     24 C10        -0.8330   -6.2050   -0.3960 c3        1 MOL      0.042803
     25 C11        -1.8130   -6.5930   -1.5370 c3        1 MOL      0.033211
     26 C12        -2.8510   -7.5530   -1.0250 c3        1 MOL      0.132490
     27 N3         -3.7700   -7.9320   -2.0890 n4        1 MOL     -0.313335
     28 H8          1.4400   -3.3160    0.2800 hn        1 MOL      0.189938
     29 H9          1.6210   -6.3220    0.4140 h1        1 MOL      0.095155
     30 H10         0.5450   -5.8220   -2.0010 hc        1 MOL     -0.019764
     31 H11         0.0160   -4.3400   -1.0670 hc        1 MOL     -0.019764
     32 H12        -1.3720   -5.5490    0.2870 hc        1 MOL      0.008909
     33 H13        -0.4780   -7.0980    0.1180 hc        1 MOL      0.008909
     34 H14        -1.2900   -7.0780   -2.3610 hc        1 MOL      0.013890
     35 H15        -2.3540   -5.6820   -1.8160 hc        1 MOL      0.013890
     36 H16        -3.4330   -6.9930   -0.2980 hx        1 MOL      0.038301
     37 H17        -2.3930   -8.3970   -0.4940 hx        1 MOL      0.038301
     38 H18        -4.0070   -7.1540   -2.6920 hn        1 MOL      0.263215
     39 H19        -3.4090   -8.6800   -2.6590 hn        1 MOL      0.263215
     40 H20        -4.6140   -8.1190   -1.5860 hn        1 MOL      0.263215
     41 N4          3.5190   -4.4040   -1.2340 n         1 MOL     -0.290098
     42 C13         4.8680   -4.3420   -1.9240 c3        1 MOL      0.191675
     43 C14         6.0200   -4.0230   -0.9490 c         1 MOL      0.347340
     44 O6          7.1380   -4.4590   -1.1420 o         1 MOL     -0.529714
     45 C15         4.8850   -3.3380   -3.0790 c3        1 MOL     -0.397636
     46 C16         4.2770   -1.9820   -2.7130 c         1 MOL      0.860343
     47 O7          4.8200   -1.0770   -2.0330 o         1 MOL     -0.743636
     48 O8          3.1640   -1.7800   -3.1980 o         1 MOL     -0.743636
     49 H21         3.2870   -3.5360   -0.7660 hn        1 MOL      0.038088
     50 H22         5.1970   -5.3230   -2.2530 h1        1 MOL      0.076569
     51 H23         4.3630   -3.8560   -3.8820 hc        1 MOL      0.109982
     52 H24         5.8940   -3.0820   -3.3890 hc        1 MOL      0.109982
     53 N5          5.7050   -3.1660    0.0050 n         1 MOL     -0.049952
     54 C17         6.6130   -2.7160    1.1080 c3        1 MOL     -0.081875
     55 C18         7.3270   -1.3530    0.8520 c         1 MOL      0.403713
     56 O9          8.4060   -1.2400    1.4810 o         1 MOL     -0.493673
     57 H25         4.7460   -2.8720    0.1100 hn        1 MOL      0.020659
     58 H26         7.3440   -3.5090    1.2800 h1        1 MOL      0.081367
     59 H27         6.1180   -2.7780    2.0850 h1        1 MOL      0.081367
     60 N6          6.7780   -0.4510    0.0580 n         1 MOL     -0.045742
     61 C19         7.4180    0.8630   -0.1080 c3        1 MOL     -0.054825
     62 C20         6.3780    1.9960   -0.3580 c         1 MOL      0.506056
     63 O10         5.2590    1.7100   -0.7550 o         1 MOL     -0.497034
     64 C21         8.4350    0.8750   -1.2410 c3        1 MOL     -0.205344
     65 C22         9.7160    0.0970   -0.9390 c         1 MOL      0.584473
     66 N7         10.0540   -0.9880   -1.6040 n         1 MOL     -0.752160
     67 O11        10.4920    0.4360    0.0000 o         1 MOL     -0.538558
     68 H28         6.0730   -0.7760   -0.5850 hn        1 MOL      0.122317
     69 H29         7.8970    1.1960    0.8120 h1        1 MOL      0.069715
     70 H30         8.7780    1.8380   -1.5980 hc        1 MOL      0.062034
     71 H31         7.9630    0.4310   -2.1250 hc        1 MOL      0.062034
     72 H32         9.5260   -1.4060   -2.3500 hn        1 MOL      0.368699
     73 H33        10.9230   -1.4250   -1.3260 hn        1 MOL      0.368699
     74 N8          6.6890    3.2780   -0.0670 n         1 MOL     -0.336139
     75 C23         5.8180    4.3930   -0.2900 c3        1 MOL     -0.183995
     76 C24         4.5560    4.4260    0.5950 c         1 MOL      0.579944
     77 O12         4.4790    3.9320    1.7370 o         1 MOL     -0.483760
     78 H34         7.6200    3.4210    0.3070 hn        1 MOL      0.305700
     79 H35         5.5650    4.5030   -1.3450 h1        1 MOL      0.102994
     80 H36         6.4130    5.2690   -0.0150 h1        1 MOL      0.102994
     81 N9          3.5120    4.9300   -0.0370 n         1 MOL     -0.528719
     82 C25         2.0880    4.9070    0.2610 c3        1 MOL      0.267237
     83 C26         1.5610    3.5020    0.2930 c         1 MOL      0.471365
     84 O13         2.1210    2.5910   -0.3400 o         1 MOL     -0.576504
     85 C27         1.4030    5.7940   -0.7620 c3        1 MOL     -0.340381
     86 C28         1.9730    7.2110   -0.7440 ca        1 MOL      0.163641
     87 C29         2.0000    7.9670    0.4360 ca        1 MOL     -0.198914
     88 C30         2.6390    7.7400   -1.8740 ca        1 MOL     -0.198914
     89 C31         2.5850    9.2070    0.5550 ca        1 MOL     -0.210303
     90 C32         3.3200    8.9300   -1.7530 ca        1 MOL     -0.210303
     91 C33         3.3360    9.7000   -0.5310 ca        1 MOL      0.298757
     92 O14         3.9300   10.9420   -0.5230 oh        1 MOL     -0.504052
     93 H37         3.6140    5.3540   -0.9460 hn        1 MOL      0.276109
     94 H38         1.8960    5.3070    1.2550 h1        1 MOL      0.022435
     95 H39         0.3880    5.8650   -0.3910 hc        1 MOL      0.100527
     96 H40         1.4510    5.3500   -1.7650 hc        1 MOL      0.100527
     97 H41         1.4440    7.5620    1.2620 ha        1 MOL      0.141774
     98 H42         2.5970    7.2070   -2.8110 ha        1 MOL      0.141774
     99 H43         2.5380    9.7530    1.4870 ha        1 MOL      0.146859
    100 H44         3.8600    9.3790   -2.5590 ha        1 MOL      0.146859
    101 H45         3.9570   11.4390    0.2920 ho        1 MOL      0.401911
    102 N10         0.6410    3.2040    1.2430 n         1 MOL     -0.493283
    103 C34         0.0290    1.9360    1.8260 c3        1 MOL      0.046398
    104 C35        -0.1660    0.6650    0.9360 c         1 MOL      0.276611
    105 O15         0.7890    0.2750    0.3220 o         1 MOL     -0.272898
    106 C36         0.8470    1.5170    3.0110 c3        1 MOL      0.456000
    107 C37         0.1770    0.4330    3.8960 c3        1 MOL     -0.310048
    108 C38         1.2690    2.6350    4.0290 c3        1 MOL     -0.233401
    109 C39        -1.1390    0.7600    4.5620 c3        1 MOL     -0.221668
    110 H46         0.1360    4.0410    1.4910 hn        1 MOL      0.292736
    111 H47        -0.9460    2.1780    2.2540 h1        1 MOL      0.015304
    112 H48         1.7630    1.0660    2.6410 hc        1 MOL     -0.047737
    113 H49         0.9240    0.1530    4.6530 hc        1 MOL      0.128249
    114 H50         0.0460   -0.4640    3.2970 hc        1 MOL      0.128249
    115 H51         1.9700    3.2930    3.5220 hc        1 MOL      0.044048
    116 H52         0.4280    3.2850    4.2920 hc        1 MOL      0.044048
    117 H53         1.8180    2.2950    4.9010 hc        1 MOL      0.044048
    118 H54        -1.0680    1.7480    5.0300 hc        1 MOL      0.065248
    119 H55        -1.9970    0.8510    3.8970 hc        1 MOL      0.065248
    120 H56        -1.5350    0.0970    5.3250 hc        1 MOL      0.065248
    121 N11        -1.4280    0.2700    0.7650 n         1 MOL     -0.389184
    122 C40        -1.8020   -0.8220   -0.1680 c3        1 MOL     -0.205576
    123 C41        -3.2180   -0.6740   -0.7150 c         1 MOL      0.630379
    124 O16        -3.4790   -1.3220   -1.7510 o         1 MOL     -0.538211
    125 C42        -1.6600   -2.1630    0.5720 c3        1 MOL      0.228088
    126 O17        -2.4500   -2.1410    1.8060 oh        1 MOL     -0.585593
    127 H57        -2.1340    0.6310    1.3880 hn        1 MOL      0.312702
    128 H58        -1.1630   -0.8420   -1.0550 h1        1 MOL      0.144863
    129 H59        -0.6100   -2.3760    0.8060 h1        1 MOL     -0.011460
    130 H60        -2.0420   -3.0170    0.0100 h1        1 MOL     -0.011460
    131 H61        -1.8640   -2.5490    2.4410 ho        1 MOL      0.406278
    132 N12        -4.1140    0.0400    0.0080 n         1 MOL     -0.462334
    133 C43        -5.5280    0.1170   -0.3450 c3        1 MOL     -0.007005
    134 C44        -5.8710    0.6100   -1.7700 c         1 MOL      0.589774
    135 O18        -5.1130    1.2530   -2.4730 o         1 MOL     -0.557722
    136 C45        -6.2030    1.0440    0.6960 c3        1 MOL     -0.296651
    137 H62        -3.8020    0.6180    0.7650 hn        1 MOL      0.284759
    138 H63        -5.8730   -0.9160   -0.2570 h1        1 MOL      0.150895
    139 H64        -6.2760    0.5980    1.6890 hc        1 MOL      0.100575
    140 H65        -5.7100    2.0130    0.7740 hc        1 MOL      0.100575
    141 H66        -7.2370    1.3110    0.4690 hc        1 MOL      0.100575
    142 N13        -6.9750    0.1750   -2.2900 n         1 MOL     -0.559484
    143 C46        -8.1980   -0.4090   -1.7190 c3        1 MOL      0.252586
    144 C47        -9.4440    0.0390   -2.5600 c         1 MOL      0.377719
    145 O19        -9.3160    0.2840   -3.7570 o         1 MOL     -0.492794
    146 C48        -8.1990   -1.9730   -1.7620 c3        1 MOL     -0.253910
    147 H67        -7.0470    0.4140   -3.2760 hn        1 MOL      0.324712
    148 H68        -8.2740   -0.2280   -0.6450 h1        1 MOL      0.038089
    149 H69        -8.3620   -2.3280   -2.7800 hc        1 MOL      0.072298
    150 H70        -7.4080   -2.3970   -1.1360 hc        1 MOL      0.072298
    151 H71        -9.1370   -2.1900   -1.2470 hc        1 MOL      0.072298
    152 N14       -10.6770    0.1700   -1.9500 n         1 MOL     -0.416894
    153 C49       -11.0040    0.2460   -0.5090 c3        1 MOL     -0.014198
    154 C50       -10.1810    1.3830    0.1440 c         1 MOL      0.334120
    155 O20        -9.7280    1.1410    1.2600 o         1 MOL     -0.499013
    156 C51       -12.5210    0.4870   -0.4130 c3        1 MOL     -0.089042
    157 C52       -12.9940    0.6470    1.0770 c3        1 MOL     -0.171369
    158 C53       -14.4680    1.1440    1.2110 c         1 MOL      0.678044
    159 O21       -15.3410    0.3180    1.5080 o         1 MOL     -0.652996
    160 O22       -14.6540    2.3980    1.1250 o         1 MOL     -0.652996
    161 H72       -11.3920    0.2430   -2.6600 hn        1 MOL      0.289351
    162 H73       -10.6940   -0.6950   -0.0530 h1        1 MOL      0.105202
    163 H74       -13.0520   -0.3730   -0.8080 hc        1 MOL      0.055874
    164 H75       -12.7340    1.4500   -0.8870 hc        1 MOL      0.055874
    165 H76       -12.3760    1.3970    1.5710 hc        1 MOL      0.057156
    166 H77       -12.8240   -0.2500    1.6780 hc        1 MOL      0.057156
    167 N15        -9.9900    2.5620   -0.4300 n         1 MOL     -0.164448
    168 C54        -9.2020    3.5960    0.2330 c3        1 MOL     -0.310460
    169 H78        -8.1620    3.2760    0.2940 h1        1 MOL      0.128939
    170 H79        -9.2640    4.5220   -0.3380 h1        1 MOL      0.128939
    171 H80        -9.5910    3.7610    1.2380 h1        1 MOL      0.128939
    172 H81       -10.4190    2.8700   -1.2950 hn        1 MOL      0.262226
    173 Ca1         2.7870    0.2240   -1.2000 Ca        1 MOL      1.705400
    174 O23         3.5250    1.8210   -3.1260 oh        1 MOL     -0.814403
    175 H82         3.6850    2.7610   -3.0720 ho        1 MOL      0.406563
    176 H83         4.1780    1.4970   -3.7500 ho        1 MOL      0.406563
    177 O24         0.4790    1.1680   -2.5590 oh        1 MOL     -0.814403
    178 H84        -0.3020    0.9570   -3.0630 ho        1 MOL      0.406563
    179 H85         0.2280    1.9380   -2.0490 ho        1 MOL      0.406563
    180 O25         0.8500   -2.0140   -1.8580 oh        1 MOL     -0.814403
    181 H86         1.4230   -2.2660   -2.5830 ho        1 MOL      0.406563
    182 H87        -0.0160   -2.3430   -2.1180 ho        1 MOL      0.406563
@<TRIPOS>BOND
     1    1    2 1   
     2    1    4 1   
     3    1    5 1   
     4    1    6 1   
     5    2    3 2   
     6    2    7 1   
     7    7    8 1   
     8    7   15 1   
     9    8    9 1   
    10    8   11 1   
    11    8   16 1   
    12    9   10 2   
    13    9   19 1   
    14   11   12 1   
    15   11   17 1   
    16   11   18 1   
    17   12   13 1   
    18   12   14 1   
    19   19   20 1   
    20   19   28 1   
    21   20   21 1   
    22   20   23 1   
    23   20   29 1   
    24   21   22 2   
    25   21   41 1   
    26   23   24 1   
    27   23   30 1   
    28   23   31 1   
    29   24   25 1   
    30   24   32 1   
    31   24   33 1   
    32   25   26 1   
    33   25   34 1   
    34   25   35 1   
    35   26   27 1   
    36   26   36 1   
    37   26   37 1   
    38   27   38 1   
    39   27   39 1   
    40   27   40 1   
    41   41   42 1   
    42   41   49 1   
    43   42   43 1   
    44   42   45 1   
    45   42   50 1   
    46   43   44 2   
    47   43   53 1   
    48   45   46 1   
    49   45   51 1   
    50   45   52 1   
    51   46   47 1   
    52   46   48 1   
    53   53   54 1   
    54   53   57 1   
    55   54   55 1   
    56   54   58 1   
    57   54   59 1   
    58   55   56 2   
    59   55   60 1   
    60   60   61 1   
    61   60   68 1   
    62   61   62 1   
    63   61   64 1   
    64   61   69 1   
    65   62   63 2   
    66   62   74 1   
    67   64   65 1   
    68   64   70 1   
    69   64   71 1   
    70   65   66 1   
    71   65   67 2   
    72   66   72 1   
    73   66   73 1   
    74   74   75 1   
    75   74   78 1   
    76   75   76 1   
    77   75   79 1   
    78   75   80 1   
    79   76   77 2   
    80   76   81 1   
    81   81   82 1   
    82   81   93 1   
    83   82   83 1   
    84   82   85 1   
    85   82   94 1   
    86   83   84 2   
    87   83  102 1   
    88   85   86 1   
    89   85   95 1   
    90   85   96 1   
    91   86   87 ar  
    92   86   88 ar  
    93   87   89 ar  
    94   87   97 1   
    95   88   90 ar  
    96   88   98 1   
    97   89   91 ar  
    98   89   99 1   
    99   90   91 ar  
   100   90  100 1   
   101   91   92 1   
   102   92  101 1   
   103  102  103 1   
   104  102  110 1   
   105  103  104 1   
   106  103  106 1   
   107  103  111 1   
   108  104  105 2   
   109  104  121 1   
   110  106  107 1   
   111  106  108 1   
   112  106  112 1   
   113  107  109 1   
   114  107  113 1   
   115  107  114 1   
   116  108  115 1   
   117  108  116 1   
   118  108  117 1   
   119  109  118 1   
   120  109  119 1   
   121  109  120 1   
   122  121  122 1   
   123  121  127 1   
   124  122  123 1   
   125  122  125 1   
   126  122  128 1   
   127  123  124 2   
   128  123  132 1   
   129  125  126 1   
   130  125  129 1   
   131  125  130 1   
   132  126  131 1   
   133  132  133 1   
   134  132  137 1   
   135  133  134 1   
   136  133  136 1   
   137  133  138 1   
   138  134  135 2   
   139  134  142 1   
   140  136  139 1   
   141  136  140 1   
   142  136  141 1   
   143  142  143 1   
   144  142  147 1   
   145  143  144 1   
   146  143  146 1   
   147  143  148 1   
   148  144  145 2   
   149  144  152 1   
   150  146  149 1   
   151  146  150 1   
   152  146  151 1   
   153  152  153 1   
   154  152  161 1   
   155  153  154 1   
   156  153  156 1   
   157  153  162 1   
   158  154  155 2   
   159  154  167 1   
   160  156  157 1   
   161  156  163 1   
   162  156  164 1   
   163  157  158 1   
   164  157  165 1   
   165  157  166 1   
   166  158  159 1   
   167  158  160 1   
   168  167  168 1   
   169  167  172 1   
   170  168  169 1   
   171  168  170 1   
   172  168  171 1   
   173  174  175 1   
   174  174  176 1   
   175  177  178 1   
   176  177  179 1   
   177  180  181 1   
   178  180  182 1   
@<TRIPOS>SUBSTRUCTURE
     1 MOL         1 TEMP              0 ****  ****    0 ROOT
