@<TRIPOS>MOLECULE
MOL
  186   183     1     0     0
SMALL
resp


@<TRIPOS>ATOM
      1 C1          9.1480   -0.3490    2.5110 c3        1 MOL     -0.403912
      2 C2          8.1760    0.0070    1.3820 c         1 MOL      0.727372
      3 O1          7.1190    0.5970    1.6640 o         1 MOL     -0.613996
      4 H1          8.5880   -0.7320    3.3640 hc        1 MOL      0.100930
      5 H2          9.8470   -1.1100    2.1640 hc        1 MOL      0.100930
      6 H3          9.7000    0.5420    2.8100 hc        1 MOL      0.100930
      7 N1          8.4980   -0.2840    0.0990 n         1 MOL     -0.490282
      8 C3          7.5380   -0.0780   -1.0470 c3        1 MOL      0.001531
      9 C4          6.6700   -1.3080   -1.2950 c         1 MOL      0.655402
     10 O2          6.2380   -1.4590   -2.4180 o         1 MOL     -0.490247
     11 C5          8.1270    0.4390   -2.3760 c3        1 MOL     -0.081463
     12 C6          9.0420    1.7270   -2.2300 c         1 MOL      0.626118
     13 O3          9.8350    2.0050   -3.1730 o         1 MOL     -0.615764
     14 O4          8.8630    2.4230   -1.2070 o         1 MOL     -0.615764
     15 H4          9.4020   -0.7140   -0.0340 hn        1 MOL      0.277446
     16 H5          6.8390    0.7030   -0.7390 h1        1 MOL      0.061284
     17 H6          7.4490    0.4670   -3.2300 hc        1 MOL      0.029640
     18 H7          8.7500   -0.3650   -2.7780 hc        1 MOL      0.029640
     19 N2          6.5460   -2.2400   -0.3920 n         1 MOL     -0.534344
     20 C7          5.9730   -3.5420   -0.6880 c3        1 MOL      0.059022
     21 C8          4.4890   -3.6240   -1.0550 c         1 MOL      0.458601
     22 O5          4.2050   -4.3630   -1.9900 o         1 MOL     -0.544109
     23 C9          6.3700   -4.5070    0.3800 c3        1 MOL      0.039542
     24 C10         7.8600   -4.8220    0.4010 c3        1 MOL      0.045825
     25 C11         8.1490   -6.0040    1.4000 c3        1 MOL      0.199007
     26 C12         9.6990   -6.1400    1.5940 c3        1 MOL     -0.150903
     27 N3         10.2030   -7.3060    2.4040 n4        1 MOL      0.016687
     28 H8          6.9400   -2.0730    0.5240 hn        1 MOL      0.201909
     29 H9          6.3930   -3.8480   -1.6590 h1        1 MOL      0.091178
     30 H10         5.7460   -5.3950    0.4130 hc        1 MOL     -0.002187
     31 H11         6.1370   -4.1360    1.3760 hc        1 MOL     -0.002187
     32 H12         8.3600   -3.9180    0.7200 hc        1 MOL     -0.020520
     33 H13         8.1030   -5.1100   -0.6240 hc        1 MOL     -0.020520
     34 H14         7.7440   -6.9590    1.0720 hc        1 MOL     -0.024742
     35 H15         7.7930   -5.7140    2.3950 hc        1 MOL     -0.024742
     36 H16        10.0650   -5.2560    2.1040 hx        1 MOL      0.087451
     37 H17        10.0120   -6.3220    0.5660 hx        1 MOL      0.087451
     38 H18         9.8530   -8.2300    2.1720 hn        1 MOL      0.173816
     39 H19        11.2040   -7.4900    2.3720 hn        1 MOL      0.173816
     40 H20         9.9910   -7.2940    3.3870 hn        1 MOL      0.173816
     41 N4          3.4830   -2.8130   -0.6600 n         1 MOL     -0.249361
     42 C13         3.4230   -1.8610    0.4930 c3        1 MOL     -0.149212
     43 C14         3.4200   -0.4030   -0.0400 c         1 MOL      0.469781
     44 O6          2.8010   -0.0520   -1.0490 o         1 MOL     -0.547628
     45 C15         2.1970   -2.1750    1.4010 c3        1 MOL     -0.387583
     46 C16         0.8770   -2.4420    0.7530 c         1 MOL      0.856454
     47 O7          0.7470   -2.1500   -0.5020 o         1 MOL     -0.728526
     48 O8         -0.0410   -3.0210    1.4450 o         1 MOL     -0.728526
     49 H21         2.5760   -3.0360   -1.0210 hn        1 MOL      0.289244
     50 H22         4.3360   -2.0870    1.0490 h1        1 MOL      0.095496
     51 H23         2.0920   -1.4740    2.2270 hc        1 MOL      0.108585
     52 H24         2.4520   -3.1270    1.8790 hc        1 MOL      0.108585
     53 N5          4.0140    0.5020    0.6830 n         1 MOL     -0.159794
     54 C17         4.1240    1.9110    0.3700 c3        1 MOL     -0.073594
     55 C18         2.8890    2.6350   -0.0120 c         1 MOL      0.670242
     56 O9          1.7700    2.1540    0.0690 o         1 MOL     -0.811576
     57 H25         4.3620    0.2830    1.6090 hn        1 MOL      0.201144
     58 H26         4.8200    1.9050   -0.4740 h1        1 MOL      0.122180
     59 H27         4.6200    2.4220    1.1880 h1        1 MOL      0.122180
     60 N6          3.1110    3.8500   -0.5220 n         1 MOL     -0.662125
     61 C19         2.0470    4.7800   -0.9310 c3        1 MOL      0.566112
     62 C20         2.4950    6.2140   -0.6690 c         1 MOL      0.366201
     63 O10         3.6600    6.5040   -0.4080 o         1 MOL     -0.518367
     64 C21         1.6900    4.5700   -2.4230 c3        1 MOL      0.004117
     65 C22         1.6860    3.1730   -2.8820 c         1 MOL      0.654039
     66 O11         2.5810    2.8520   -3.7240 o         1 MOL     -0.603630
     67 O12         0.7110    2.4040   -2.5930 o         1 MOL     -0.603630
     68 H28         4.0860    4.1190   -0.6270 hn        1 MOL      0.294717
     69 H29         1.1920    4.5800   -0.2810 h1        1 MOL      0.004193
     70 H30         2.3630    5.1550   -3.0340 hc        1 MOL     -0.044502
     71 H31         0.6400    4.8360   -2.5350 hc        1 MOL     -0.044502
     72 N7          1.6240    7.2120   -0.6210 n         1 MOL     -0.451797
     73 C23         0.1680    7.0660   -0.8410 c3        1 MOL     -0.109254
     74 C24        -0.6530    6.1650    0.0620 c         1 MOL      0.635372
     75 O13        -0.2370    6.0920    1.2290 o         1 MOL     -0.515777
     76 H32         1.9640    8.1360   -0.3870 hn        1 MOL      0.341681
     77 H33        -0.0810    6.7660   -1.8650 h1        1 MOL      0.068776
     78 H34        -0.2540    8.0600   -0.7310 h1        1 MOL      0.068776
     79 N8         -1.7750    5.6030   -0.3420 n         1 MOL     -0.639762
     80 C25        -2.5050    4.6410    0.5120 c3        1 MOL     -0.033206
     81 C26        -1.6480    3.4230    0.9090 c         1 MOL      0.662411
     82 O14        -0.9770    2.7920    0.0560 o         1 MOL     -0.490169
     83 C27        -3.8000    4.3120   -0.2720 c3        1 MOL      0.253544
     84 C28        -4.7360    3.3980    0.4510 c3        1 MOL     -0.458070
     85 O15        -3.5280    3.6510   -1.4720 oh        1 MOL     -0.621206
     86 H35        -1.9080    5.4830   -1.3390 hn        1 MOL      0.384283
     87 H36        -2.8390    5.2300    1.3640 h1        1 MOL      0.089997
     88 H37        -4.3020    5.2270   -0.5990 h1        1 MOL      0.048177
     89 H38        -4.3760    3.4860   -1.9070 ho        1 MOL      0.422089
     90 H39        -4.4390    2.3520    0.3590 hc        1 MOL      0.133132
     91 H40        -4.7590    3.6330    1.5150 hc        1 MOL      0.133132
     92 H41        -5.7250    3.5820    0.0200 hc        1 MOL      0.133132
     93 N9         -1.6730    3.1250    2.2260 n         1 MOL     -0.437812
     94 C29        -1.0930    1.9770    3.0010 c3        1 MOL     -0.089744
     95 C30        -1.3880    0.6030    2.3470 c         1 MOL      0.424902
     96 O16        -0.8800    0.2250    1.3760 o         1 MOL     -0.370497
     97 C31         0.3980    2.3830    3.3180 c3        1 MOL     -0.033040
     98 C32         0.5330    3.6670    4.1330 c3        1 MOL      0.016140
     99 C33         1.1410    1.2150    3.9670 c3        1 MOL     -0.473936
    100 C34         1.7820    4.4240    3.7300 c3        1 MOL     -0.187614
    101 H42        -2.2420    3.7780    2.7490 hn        1 MOL      0.253845
    102 H43        -1.6440    1.9110    3.9400 h1        1 MOL      0.057878
    103 H44         0.8710    2.4950    2.3370 hc        1 MOL      0.191058
    104 H45         0.6710    3.4340    5.1880 hc        1 MOL      0.023619
    105 H46        -0.2890    4.3720    4.0980 hc        1 MOL      0.023619
    106 H47         2.2200    1.3750    4.0310 hc        1 MOL      0.130159
    107 H48         0.5950    0.9500    4.8790 hc        1 MOL      0.130159
    108 H49         1.0120    0.3040    3.3850 hc        1 MOL      0.130159
    109 H50         1.8090    5.2930    4.3900 hc        1 MOL      0.048065
    110 H51         2.7000    3.8540    3.8630 hc        1 MOL      0.048065
    111 H52         1.5870    4.7610    2.7140 hc        1 MOL      0.048065
    112 N10        -2.2340   -0.1440    3.1170 n         1 MOL     -0.163412
    113 C35        -2.7190   -1.4430    2.6730 c3        1 MOL     -0.241760
    114 C36        -4.1500   -1.4690    2.0320 c         1 MOL      0.536085
    115 O17        -4.6030   -2.5360    1.6230 o         1 MOL     -0.589732
    116 C37        -2.4860   -2.5600    3.6700 c3        1 MOL      0.532229
    117 C38        -3.0880   -2.3790    5.1040 c3        1 MOL     -0.464108
    118 O18        -1.0900   -2.6110    3.9290 oh        1 MOL     -0.678859
    119 H53        -2.3660    0.0950    4.0910 hn        1 MOL      0.221699
    120 H54        -1.9670   -1.7500    1.9350 h1        1 MOL      0.063791
    121 H55        -2.7980   -3.5230    3.2520 h1        1 MOL     -0.005879
    122 H56        -0.5790   -2.8570    3.1540 ho        1 MOL      0.398072
    123 H57        -2.4020   -1.6980    5.6100 hc        1 MOL      0.108308
    124 H58        -4.1300   -2.0250    5.0750 hc        1 MOL      0.108308
    125 H59        -3.0010   -3.3280    5.6260 hc        1 MOL      0.108308
    126 N11        -4.8140   -0.2880    1.9790 n         1 MOL     -0.234679
    127 C39        -6.2580   -0.2710    1.7130 c3        1 MOL     -0.014373
    128 C40        -6.6320   -0.5560    0.3090 c         1 MOL      0.402648
    129 O19        -6.3290    0.1900   -0.5760 o         1 MOL     -0.483079
    130 C41        -6.8620    1.0740    2.1920 c3        1 MOL      0.478454
    131 C42        -8.3690    1.1360    2.1930 c3        1 MOL     -0.508386
    132 O20        -6.3650    1.3540    3.5040 oh        1 MOL     -0.633774
    133 H60        -4.4700    0.5570    2.4200 hn        1 MOL      0.116648
    134 H61        -6.8530   -0.9780    2.2820 h1        1 MOL      0.068684
    135 H62        -6.3860    1.8810    1.6360 h1        1 MOL     -0.077095
    136 H63        -6.2570    2.3060    3.5270 ho        1 MOL      0.400679
    137 H64        -8.6250    0.2180    2.7270 hc        1 MOL      0.128409
    138 H65        -8.7700    1.9290    2.8170 hc        1 MOL      0.128409
    139 H66        -8.8550    1.0540    1.2280 hc        1 MOL      0.128409
    140 N12        -7.0980   -1.8000    0.0360 n         1 MOL     -0.170026
    141 C43        -7.3480   -2.4800   -1.2810 c3        1 MOL      0.182399
    142 C44        -6.0880   -2.3050   -2.1780 c         1 MOL      0.437009
    143 O21        -6.2140   -1.7980   -3.2640 o         1 MOL     -0.501175
    144 C45        -8.7140   -1.9790   -1.9100 c3        1 MOL     -0.357804
    145 C46        -9.8860   -2.3090   -0.9670 c3        1 MOL      0.069638
    146 C47       -11.2780   -2.1430   -1.5440 c3        1 MOL     -0.132443
    147 C48       -12.5270   -2.5350   -0.7470 c3        1 MOL      0.029735
    148 N13       -12.5590   -4.0270   -0.4330 n4        1 MOL     -0.226396
    149 H67        -7.6450   -2.1700    0.8030 hn        1 MOL      0.105275
    150 H68        -7.3870   -3.5470   -1.0730 h1        1 MOL      0.003334
    151 H69        -8.8310   -2.5430   -2.8330 hc        1 MOL      0.135540
    152 H70        -8.6380   -0.9170   -2.1520 hc        1 MOL      0.135540
    153 H71        -9.7430   -1.5860   -0.1710 hc        1 MOL      0.003843
    154 H72        -9.8140   -3.3330   -0.5960 hc        1 MOL      0.003843
    155 H73       -11.2940   -2.5650   -2.5510 hc        1 MOL      0.078660
    156 H74       -11.3830   -1.0530   -1.6380 hc        1 MOL      0.078660
    157 H75       -13.4080   -2.2350   -1.3230 hx        1 MOL      0.077233
    158 H76       -12.5930   -2.0270    0.2100 hx        1 MOL      0.077233
    159 H77       -11.8160   -4.3300    0.1860 hn        1 MOL      0.214600
    160 H78       -13.4590   -4.3200   -0.0640 hn        1 MOL      0.214600
    161 H79       -12.5030   -4.4770   -1.3270 hn        1 MOL      0.214600
    162 N14        -4.9230   -2.6690   -1.6380 n         1 MOL     -0.435099
    163 C49        -3.6180   -2.1940   -2.1560 c3        1 MOL      0.148430
    164 C50        -2.4860   -2.3100   -1.1420 c         1 MOL      0.298841
    165 O22        -1.9300   -1.2650   -0.7230 o         1 MOL     -0.515310
    166 C51        -3.2380   -2.9310   -3.4690 c3        1 MOL     -0.026107
    167 C52        -1.8030   -2.7150   -4.0270 c3        1 MOL     -0.170920
    168 C53        -1.2860   -1.2360   -3.9710 c         1 MOL      0.825694
    169 O23        -0.2990   -0.9000   -3.2610 o         1 MOL     -0.720645
    170 O24        -1.8890   -0.4450   -4.6860 o         1 MOL     -0.720645
    171 H80        -4.9840   -3.2220   -0.7870 hn        1 MOL      0.271154
    172 H81        -3.6540   -1.1410   -2.4280 h1        1 MOL      0.147657
    173 H82        -3.8680   -2.6390   -4.3080 hc        1 MOL      0.017935
    174 H83        -3.5130   -3.9820   -3.4110 hc        1 MOL      0.017935
    175 H84        -1.8320   -3.0260   -5.0700 hc        1 MOL      0.026183
    176 H85        -0.9980   -3.3160   -3.5950 hc        1 MOL      0.026183
    177 N15        -2.1140   -3.4380   -0.5500 n         1 MOL     -0.117775
    178 C54        -2.4550   -4.8660   -0.9710 c3        1 MOL     -0.244039
    179 H86        -2.2360   -4.9940   -2.0310 h1        1 MOL      0.085353
    180 H87        -1.8580   -5.5690   -0.3890 h1        1 MOL      0.085353
    181 H88        -3.5140   -5.0540   -0.7940 h1        1 MOL      0.085353
    182 H89        -1.4370   -3.3400    0.1880 hn        1 MOL      0.289247
    183 Ca1         0.0720    0.2860   -1.0340 Ca        1 MOL      1.755276
    184 O25        -2.3120    0.9970   -2.2900 oh        1 MOL     -1.076903
    185 H90        -2.7980    1.8140   -2.1700 ho        1 MOL      0.473111
    186 H91        -2.5030    0.7260   -3.1870 ho        1 MOL      0.473111
@<TRIPOS>BOND
     1    1    2 1   
     2    1    4 1   
     3    1    5 1   
     4    1    6 1   
     5    2    3 2   
     6    2    7 1   
     7    7    8 1   
     8    7   15 1   
     9    8    9 1   
    10    8   11 1   
    11    8   16 1   
    12    9   10 2   
    13    9   19 1   
    14   11   12 1   
    15   11   17 1   
    16   11   18 1   
    17   12   13 1   
    18   12   14 1   
    19   19   20 1   
    20   19   28 1   
    21   20   21 1   
    22   20   23 1   
    23   20   29 1   
    24   21   22 2   
    25   21   41 1   
    26   23   24 1   
    27   23   30 1   
    28   23   31 1   
    29   24   25 1   
    30   24   32 1   
    31   24   33 1   
    32   25   26 1   
    33   25   34 1   
    34   25   35 1   
    35   26   27 1   
    36   26   36 1   
    37   26   37 1   
    38   27   38 1   
    39   27   39 1   
    40   27   40 1   
    41   41   42 1   
    42   41   49 1   
    43   42   43 1   
    44   42   45 1   
    45   42   50 1   
    46   43   44 2   
    47   43   53 1   
    48   45   46 1   
    49   45   51 1   
    50   45   52 1   
    51   46   47 1   
    52   46   48 1   
    53   53   54 1   
    54   53   57 1   
    55   54   55 1   
    56   54   58 1   
    57   54   59 1   
    58   55   56 2   
    59   55   60 1   
    60   60   61 1   
    61   60   68 1   
    62   61   62 1   
    63   61   64 1   
    64   61   69 1   
    65   62   63 2   
    66   62   72 1   
    67   64   65 1   
    68   64   70 1   
    69   64   71 1   
    70   65   66 1   
    71   65   67 1   
    72   72   73 1   
    73   72   76 1   
    74   73   74 1   
    75   73   77 1   
    76   73   78 1   
    77   74   75 2   
    78   74   79 1   
    79   79   80 1   
    80   79   86 1   
    81   80   81 1   
    82   80   83 1   
    83   80   87 1   
    84   81   82 2   
    85   81   93 1   
    86   83   84 1   
    87   83   85 1   
    88   83   88 1   
    89   84   90 1   
    90   84   91 1   
    91   84   92 1   
    92   85   89 1   
    93   93   94 1   
    94   93  101 1   
    95   94   95 1   
    96   94   97 1   
    97   94  102 1   
    98   95   96 2   
    99   95  112 1   
   100   97   98 1   
   101   97   99 1   
   102   97  103 1   
   103   98  100 1   
   104   98  104 1   
   105   98  105 1   
   106   99  106 1   
   107   99  107 1   
   108   99  108 1   
   109  100  109 1   
   110  100  110 1   
   111  100  111 1   
   112  112  113 1   
   113  112  119 1   
   114  113  114 1   
   115  113  116 1   
   116  113  120 1   
   117  114  115 2   
   118  114  126 1   
   119  116  117 1   
   120  116  118 1   
   121  116  121 1   
   122  117  123 1   
   123  117  124 1   
   124  117  125 1   
   125  118  122 1   
   126  126  127 1   
   127  126  133 1   
   128  127  128 1   
   129  127  130 1   
   130  127  134 1   
   131  128  129 2   
   132  128  140 1   
   133  130  131 1   
   134  130  132 1   
   135  130  135 1   
   136  131  137 1   
   137  131  138 1   
   138  131  139 1   
   139  132  136 1   
   140  140  141 1   
   141  140  149 1   
   142  141  142 1   
   143  141  144 1   
   144  141  150 1   
   145  142  143 2   
   146  142  162 1   
   147  144  145 1   
   148  144  151 1   
   149  144  152 1   
   150  145  146 1   
   151  145  153 1   
   152  145  154 1   
   153  146  147 1   
   154  146  155 1   
   155  146  156 1   
   156  147  148 1   
   157  147  157 1   
   158  147  158 1   
   159  148  159 1   
   160  148  160 1   
   161  148  161 1   
   162  162  163 1   
   163  162  171 1   
   164  163  164 1   
   165  163  166 1   
   166  163  172 1   
   167  164  165 2   
   168  164  177 1   
   169  166  167 1   
   170  166  173 1   
   171  166  174 1   
   172  167  168 1   
   173  167  175 1   
   174  167  176 1   
   175  168  169 1   
   176  168  170 1   
   177  177  178 1   
   178  177  182 1   
   179  178  179 1   
   180  178  180 1   
   181  178  181 1   
   182  184  185 1   
   183  184  186 1   
@<TRIPOS>SUBSTRUCTURE
     1 MOL         1 TEMP              0 ****  ****    0 ROOT
