@<TRIPOS>MOLECULE
MOL
  182   178     1     0     0
SMALL
resp


@<TRIPOS>ATOM
      1 C1          3.5890   -5.5290    5.7450 c3        1 MOL     -0.369120
      2 C2          3.2100   -4.9520    4.2930 c         1 MOL      0.738578
      3 O1          2.2630   -5.4190    3.6860 o         1 MOL     -0.596701
      4 H1          4.6280   -5.8570    5.7460 hc        1 MOL      0.096739
      5 H2          3.4540   -4.7490    6.4940 hc        1 MOL      0.096739
      6 H3          2.9420   -6.3740    5.9810 hc        1 MOL      0.096739
      7 N1          3.8400   -3.8930    3.8400 n         1 MOL     -0.604560
      8 C3          3.5650   -3.3240    2.5160 c3        1 MOL      0.034201
      9 C4          4.0260   -4.2640    1.3580 c         1 MOL      0.585353
     10 O2          5.0660   -4.8860    1.4330 o         1 MOL     -0.531521
     11 C5          4.3160   -2.0230    2.5600 c3        1 MOL     -0.142678
     12 C6          4.0110   -1.1710    1.3630 c         1 MOL      0.529536
     13 O3          4.3490    0.0580    1.4020 o         1 MOL     -0.681637
     14 O4          3.2840   -1.5710    0.3920 o         1 MOL     -0.681637
     15 H4          4.5890   -3.4920    4.4000 hn        1 MOL      0.321425
     16 H5          2.5140   -3.0820    2.4280 h1        1 MOL      0.007803
     17 H6          5.3760   -2.2570    2.4080 hc        1 MOL      0.076504
     18 H7          3.9270   -1.4880    3.4250 hc        1 MOL      0.076504
     19 N2          3.2590   -4.3520    0.2810 n         1 MOL     -0.360764
     20 C7          3.5610   -5.1950   -0.9340 c3        1 MOL     -0.023336
     21 C8          4.6890   -4.6690   -1.8180 c         1 MOL      0.462007
     22 O5          5.2470   -5.4780   -2.5750 o         1 MOL     -0.533245
     23 C9          2.3740   -5.5150   -1.8720 c3        1 MOL     -0.131852
     24 C10         1.0860   -5.9840   -1.1600 c3        1 MOL      0.239921
     25 C11        -0.1340   -6.2150   -2.0720 c3        1 MOL     -0.188216
     26 C12        -1.3430   -6.6890   -1.3040 c3        1 MOL      0.232222
     27 N3         -2.0100   -7.7750   -2.0140 n4        1 MOL     -0.262880
     28 H8          2.3780   -3.8640    0.3070 hn        1 MOL      0.212749
     29 H9          3.8530   -6.1770   -0.5770 h1        1 MOL      0.116761
     30 H10         2.6310   -6.3020   -2.5770 hc        1 MOL      0.052509
     31 H11         2.0710   -4.6600   -2.4820 hc        1 MOL      0.052509
     32 H12         0.7870   -5.3010   -0.3590 hc        1 MOL     -0.031967
     33 H13         1.3620   -6.9060   -0.6510 hc        1 MOL     -0.031967
     34 H14         0.0840   -6.9380   -2.8470 hc        1 MOL      0.035430
     35 H15        -0.3490   -5.2340   -2.4920 hc        1 MOL      0.035430
     36 H16        -2.0500   -5.8790   -1.1160 hx        1 MOL      0.020538
     37 H17        -1.1110   -7.1380   -0.3380 hx        1 MOL      0.020538
     38 H18        -2.0690   -7.4660   -2.9840 hn        1 MOL      0.283018
     39 H19        -1.4680   -8.6240   -2.0050 hn        1 MOL      0.283018
     40 H20        -2.9720   -7.9090   -1.7540 hn        1 MOL      0.283018
     41 N4          5.0830   -3.3860   -1.6770 n         1 MOL     -0.267692
     42 C13         6.3130   -2.7420   -2.1130 c3        1 MOL     -0.030893
     43 C14         7.1910   -1.7720   -1.2820 c         1 MOL      0.394842
     44 O6          8.3450   -1.5690   -1.5920 o         1 MOL     -0.507791
     45 C15         5.8030   -1.9030   -3.3540 c3        1 MOL     -0.355992
     46 C16         5.0930   -0.6090   -3.0290 c         1 MOL      0.733040
     47 O7          4.5710   -0.3730   -1.9200 o         1 MOL     -0.694713
     48 O8          5.0780    0.2240   -3.9900 o         1 MOL     -0.694713
     49 H21         4.4810   -2.8050   -1.1110 hn        1 MOL      0.251979
     50 H22         6.9140   -3.5800   -2.4480 h1        1 MOL      0.140367
     51 H23         5.2490   -2.4440   -4.1140 hc        1 MOL      0.117237
     52 H24         6.6170   -1.4510   -3.9230 hc        1 MOL      0.117237
     53 N5          6.5910   -1.1110   -0.2730 n         1 MOL     -0.041490
     54 C17         7.2690   -0.2110    0.6530 c3        1 MOL     -0.256715
     55 C18         7.0930    1.2970    0.3590 c         1 MOL      0.581073
     56 O9          7.8050    2.0940    0.9000 o         1 MOL     -0.530881
     57 H25         5.5940   -1.1780   -0.1600 hn        1 MOL      0.054311
     58 H26         8.3370   -0.3650    0.7710 h1        1 MOL      0.129053
     59 H27         6.8630   -0.5130    1.6180 h1        1 MOL      0.129053
     60 N6          6.1600    1.6430   -0.5840 n         1 MOL     -0.151227
     61 C19         6.0570    3.0420   -1.1370 c3        1 MOL     -0.116216
     62 C20         4.7720    3.7270   -0.7530 c         1 MOL      0.522526
     63 O10         3.7670    3.0290   -0.5520 o         1 MOL     -0.526231
     64 C21         6.4150    3.1030   -2.6300 c3        1 MOL     -0.112648
     65 C22         7.8500    2.6010   -2.7350 c         1 MOL      0.657169
     66 N7          8.0880    1.4040   -3.2580 n         1 MOL     -0.795751
     67 O11         8.7980    3.3310   -2.4050 o         1 MOL     -0.557717
     68 H28         5.7500    0.8870   -1.1040 hn        1 MOL      0.125948
     69 H29         6.8750    3.5340   -0.5860 h1        1 MOL      0.056892
     70 H30         6.3090    4.1290   -2.9840 hc        1 MOL      0.017514
     71 H31         5.6840    2.4390   -3.0880 hc        1 MOL      0.017514
     72 H32         7.3280    0.7560   -3.4070 hn        1 MOL      0.385743
     73 H33         9.0400    1.1040   -3.4250 hn        1 MOL      0.385743
     74 N8          4.8200    5.0850   -0.5720 n         1 MOL     -0.324152
     75 C23         3.6080    5.9510   -0.3700 c3        1 MOL     -0.216882
     76 C24         2.7160    5.4880    0.7810 c         1 MOL      0.676294
     77 O12         3.1100    5.3710    1.8740 o         1 MOL     -0.506321
     78 H34         5.7090    5.5340   -0.7550 hn        1 MOL      0.306419
     79 H35         3.0510    6.0090   -1.3030 h1        1 MOL      0.107017
     80 H36         3.9210    6.9490   -0.0630 h1        1 MOL      0.107017
     81 N9          1.4820    5.1040    0.4390 n         1 MOL     -0.639222
     82 C25         0.4770    4.4090    1.3130 c3        1 MOL      0.064824
     83 C26         0.8560    3.0180    1.6450 c         1 MOL      0.763014
     84 O13         1.7530    2.3610    1.0880 o         1 MOL     -0.535551
     85 C27        -0.9140    4.5430    0.6560 c3        1 MOL     -0.241192
     86 C28        -1.3510    5.9560    0.3780 ca        1 MOL      0.172579
     87 C29        -1.5320    6.8910    1.4470 ca        1 MOL     -0.206338
     88 C30        -1.5870    6.3730   -0.9400 ca        1 MOL     -0.206338
     89 C31        -1.9510    8.1750    1.1810 ca        1 MOL     -0.229561
     90 C32        -1.9070    7.6750   -1.2150 ca        1 MOL     -0.229561
     91 C33        -2.1380    8.6150   -0.1410 ca        1 MOL      0.319062
     92 O14        -2.5870    9.8890   -0.3680 oh        1 MOL     -0.478726
     93 H37         1.2670    5.2340   -0.5430 hn        1 MOL      0.315644
     94 H38         0.3630    4.9510    2.2580 h1        1 MOL      0.068893
     95 H39        -1.6010    4.2200    1.4410 hc        1 MOL      0.065598
     96 H40        -1.0660    3.9000   -0.2060 hc        1 MOL      0.065598
     97 H41        -1.1720    6.6500    2.4290 ha        1 MOL      0.151764
     98 H42        -1.5260    5.7400   -1.8130 ha        1 MOL      0.151764
     99 H43        -2.0030    8.8540    2.0140 ha        1 MOL      0.152390
    100 H44        -2.0660    7.9990   -2.2320 ha        1 MOL      0.152390
    101 H45        -2.5940   10.4420    0.4190 ho        1 MOL      0.376168
    102 N10         0.2160    2.5160    2.7020 n         1 MOL     -0.683616
    103 C34         0.1470    1.1180    3.0950 c3        1 MOL      0.086371
    104 C35        -0.1080    0.1540    1.9120 c         1 MOL      0.111768
    105 O15         0.7670   -0.1270    1.0840 o         1 MOL     -0.272224
    106 C36         1.3120    0.7820    4.0050 c3        1 MOL      0.476096
    107 C37         1.0170   -0.5560    4.7380 c3        1 MOL     -0.132856
    108 C38         1.7270    1.8750    5.0140 c3        1 MOL     -0.421837
    109 C39        -0.2900   -0.4710    5.5760 c3        1 MOL     -0.134829
    110 H46        -0.2810    3.1990    3.2610 hn        1 MOL      0.336733
    111 H47        -0.7980    1.0950    3.6460 h1        1 MOL      0.077248
    112 H48         2.2040    0.5840    3.4120 hc        1 MOL     -0.043718
    113 H49         1.9160   -0.7400    5.3380 hc        1 MOL      0.075315
    114 H50         0.8310   -1.3590    4.0230 hc        1 MOL      0.075315
    115 H51         2.0840    2.6760    4.3680 hc        1 MOL      0.099640
    116 H52         0.8320    2.1950    5.5520 hc        1 MOL      0.099640
    117 H53         2.5280    1.5160    5.6680 hc        1 MOL      0.099640
    118 H54        -1.1140   -0.5160    4.8650 hc        1 MOL      0.023272
    119 H55        -0.3070   -1.3250    6.2480 hc        1 MOL      0.023272
    120 H56        -0.3930    0.4710    6.1180 hc        1 MOL      0.023272
    121 N11        -1.3500   -0.3810    1.7000 n         1 MOL     -0.299840
    122 C40        -1.6960   -1.2590    0.5410 c3        1 MOL     -0.077067
    123 C41        -3.1240   -1.2970    0.0680 c         1 MOL      0.492351
    124 O16        -3.4360   -2.1180   -0.7850 o         1 MOL     -0.519210
    125 C42        -1.1210   -2.7210    0.7860 c3        1 MOL     -0.011233
    126 O17         0.3500   -2.8370    0.8800 oh        1 MOL     -0.379115
    127 H57        -2.0780   -0.2810    2.3920 hn        1 MOL      0.309343
    128 H58        -1.1720   -0.8820   -0.3380 h1        1 MOL      0.146590
    129 H59        -1.4380   -3.2930   -0.0800 h1        1 MOL      0.084321
    130 H60        -1.5100   -3.2000    1.6950 h1        1 MOL      0.084321
    131 H61         0.7250   -1.9910    0.6340 ho        1 MOL      0.244051
    132 N12        -4.0230   -0.5560    0.6700 n         1 MOL     -0.445016
    133 C43        -5.4840   -0.5400    0.2680 c3        1 MOL      0.040529
    134 C44        -5.7950    0.3150   -1.0260 c         1 MOL      0.607464
    135 O18        -5.1290    1.2580   -1.4310 o         1 MOL     -0.579331
    136 C45        -6.3900   -0.0900    1.4140 c3        1 MOL     -0.136383
    137 H62        -3.6970    0.0560    1.3920 hn        1 MOL      0.238030
    138 H63        -5.7540   -1.5740    0.0650 h1        1 MOL      0.131580
    139 H64        -6.1620    0.9140    1.7730 hc        1 MOL      0.058832
    140 H65        -7.3930   -0.0510    0.9760 hc        1 MOL      0.058832
    141 H66        -6.2710   -0.7680    2.2630 hc        1 MOL      0.058832
    142 N13        -6.9110    0.0560   -1.6960 n         1 MOL     -0.530007
    143 C46        -7.8390   -1.0680   -1.6090 c3        1 MOL      0.094801
    144 C47        -9.1770   -0.6610   -2.2640 c         1 MOL      0.503045
    145 O19        -9.1620    0.1000   -3.2240 o         1 MOL     -0.528392
    146 C48        -7.2650   -2.1670   -2.5320 c3        1 MOL     -0.079204
    147 H67        -7.1810    0.7880   -2.3410 hn        1 MOL      0.329597
    148 H68        -7.9790   -1.3900   -0.5760 h1        1 MOL      0.016009
    149 H69        -7.1670   -1.7990   -3.5550 hc        1 MOL      0.030149
    150 H70        -6.3170   -2.5730   -2.1680 hc        1 MOL      0.030149
    151 H71        -7.9160   -3.0260   -2.6840 hc        1 MOL      0.030149
    152 N14       -10.3230   -1.0640   -1.7110 n         1 MOL     -0.482640
    153 C49       -10.5180   -1.7030   -0.4390 c3        1 MOL      0.092645
    154 C50       -10.1280   -0.8030    0.7290 c         1 MOL      0.399228
    155 O20        -9.4600   -1.3500    1.6400 o         1 MOL     -0.548024
    156 C51       -11.8920   -2.3190   -0.3250 c3        1 MOL     -0.152439
    157 C52       -13.0260   -1.3890    0.1960 c3        1 MOL      0.087568
    158 C53       -13.6530   -0.3240   -0.7240 c         1 MOL      0.668686
    159 O21       -12.9110    0.5930   -1.1510 o         1 MOL     -0.655157
    160 O22       -14.7940   -0.4540   -1.1480 o         1 MOL     -0.655157
    161 H72       -11.1650   -0.7190   -2.1420 hn        1 MOL      0.306726
    162 H73        -9.7880   -2.5120   -0.4590 h1        1 MOL      0.036052
    163 H74       -11.7380   -3.2040    0.2930 hc        1 MOL      0.053407
    164 H75       -12.1940   -2.6840   -1.3110 hc        1 MOL      0.053407
    165 H76       -12.7290   -0.8070    1.0730 hc        1 MOL     -0.057013
    166 H77       -13.8820   -1.9870    0.5030 hc        1 MOL     -0.057013
    167 N15       -10.5400    0.5110    0.5680 n         1 MOL     -0.051789
    168 C54        -9.9680    1.5330    1.4100 c3        1 MOL     -0.116597
    169 H78       -10.6950    1.8290    2.1660 h1        1 MOL      0.054975
    170 H79        -9.0760    1.1430    1.8990 h1        1 MOL      0.054975
    171 H80        -9.7030    2.3980    0.8030 h1        1 MOL      0.054975
    172 H81       -11.2640    0.7070   -0.1140 hn        1 MOL      0.123708
    173 Ca1         2.5020    0.5560   -0.6920 Ca        1 MOL      1.733099
    174 O23         2.9920    1.6030   -3.2850 oh        1 MOL     -0.870350
    175 H82         3.8190    1.1880   -3.5450 ho        1 MOL      0.424646
    176 H83         2.8740    2.3120   -3.9200 ho        1 MOL      0.424646
    177 O24         0.2890    1.8940   -1.4910 oh        1 MOL     -0.870350
    178 H84         0.2860    2.6980   -2.0040 ho        1 MOL      0.424646
    179 H85        -0.6220    1.7750   -1.2210 ho        1 MOL      0.424646
    180 O25         0.9800   -0.9530   -2.3700 oh        1 MOL     -0.870350
    181 H86         0.1870   -0.6310   -2.8090 ho        1 MOL      0.424646
    182 H87         1.2910   -1.6650   -2.9360 ho        1 MOL      0.424646
@<TRIPOS>BOND
     1    1    2 1   
     2    1    4 1   
     3    1    5 1   
     4    1    6 1   
     5    2    3 2   
     6    2    7 1   
     7    7    8 1   
     8    7   15 1   
     9    8    9 1   
    10    8   11 1   
    11    8   16 1   
    12    9   10 2   
    13    9   19 1   
    14   11   12 1   
    15   11   17 1   
    16   11   18 1   
    17   12   13 1   
    18   12   14 1   
    19   19   20 1   
    20   19   28 1   
    21   20   21 1   
    22   20   23 1   
    23   20   29 1   
    24   21   22 2   
    25   21   41 1   
    26   23   24 1   
    27   23   30 1   
    28   23   31 1   
    29   24   25 1   
    30   24   32 1   
    31   24   33 1   
    32   25   26 1   
    33   25   34 1   
    34   25   35 1   
    35   26   27 1   
    36   26   36 1   
    37   26   37 1   
    38   27   38 1   
    39   27   39 1   
    40   27   40 1   
    41   41   42 1   
    42   41   49 1   
    43   42   43 1   
    44   42   45 1   
    45   42   50 1   
    46   43   44 2   
    47   43   53 1   
    48   45   46 1   
    49   45   51 1   
    50   45   52 1   
    51   46   47 1   
    52   46   48 1   
    53   53   54 1   
    54   53   57 1   
    55   54   55 1   
    56   54   58 1   
    57   54   59 1   
    58   55   56 2   
    59   55   60 1   
    60   60   61 1   
    61   60   68 1   
    62   61   62 1   
    63   61   64 1   
    64   61   69 1   
    65   62   63 2   
    66   62   74 1   
    67   64   65 1   
    68   64   70 1   
    69   64   71 1   
    70   65   66 1   
    71   65   67 2   
    72   66   72 1   
    73   66   73 1   
    74   74   75 1   
    75   74   78 1   
    76   75   76 1   
    77   75   79 1   
    78   75   80 1   
    79   76   77 2   
    80   76   81 1   
    81   81   82 1   
    82   81   93 1   
    83   82   83 1   
    84   82   85 1   
    85   82   94 1   
    86   83   84 2   
    87   83  102 1   
    88   85   86 1   
    89   85   95 1   
    90   85   96 1   
    91   86   87 ar  
    92   86   88 ar  
    93   87   89 ar  
    94   87   97 1   
    95   88   90 ar  
    96   88   98 1   
    97   89   91 ar  
    98   89   99 1   
    99   90   91 ar  
   100   90  100 1   
   101   91   92 1   
   102   92  101 1   
   103  102  103 1   
   104  102  110 1   
   105  103  104 1   
   106  103  106 1   
   107  103  111 1   
   108  104  105 2   
   109  104  121 1   
   110  106  107 1   
   111  106  108 1   
   112  106  112 1   
   113  107  109 1   
   114  107  113 1   
   115  107  114 1   
   116  108  115 1   
   117  108  116 1   
   118  108  117 1   
   119  109  118 1   
   120  109  119 1   
   121  109  120 1   
   122  121  122 1   
   123  121  127 1   
   124  122  123 1   
   125  122  125 1   
   126  122  128 1   
   127  123  124 2   
   128  123  132 1   
   129  125  126 1   
   130  125  129 1   
   131  125  130 1   
   132  126  131 1   
   133  132  133 1   
   134  132  137 1   
   135  133  134 1   
   136  133  136 1   
   137  133  138 1   
   138  134  135 2   
   139  134  142 1   
   140  136  139 1   
   141  136  140 1   
   142  136  141 1   
   143  142  143 1   
   144  142  147 1   
   145  143  144 1   
   146  143  146 1   
   147  143  148 1   
   148  144  145 2   
   149  144  152 1   
   150  146  149 1   
   151  146  150 1   
   152  146  151 1   
   153  152  153 1   
   154  152  161 1   
   155  153  154 1   
   156  153  156 1   
   157  153  162 1   
   158  154  155 2   
   159  154  167 1   
   160  156  157 1   
   161  156  163 1   
   162  156  164 1   
   163  157  158 1   
   164  157  165 1   
   165  157  166 1   
   166  158  159 1   
   167  158  160 1   
   168  167  168 1   
   169  167  172 1   
   170  168  169 1   
   171  168  170 1   
   172  168  171 1   
   173  174  175 1   
   174  174  176 1   
   175  177  178 1   
   176  177  179 1   
   177  180  181 1   
   178  180  182 1   
@<TRIPOS>SUBSTRUCTURE
     1 MOL         1 TEMP              0 ****  ****    0 ROOT
