@<TRIPOS>MOLECULE
MOL
  178   175     1     0     0
SMALL
resp


@<TRIPOS>ATOM
      1 C1          3.4100    7.7690   -1.1660 c3        1 MOL     -0.396487
      2 C2          4.7440    6.9340   -1.1760 c         1 MOL      0.717085
      3 O1          5.6080    7.1810   -0.3140 o         1 MOL     -0.603227
      4 H1          3.5700    8.7150   -1.6840 hc        1 MOL      0.098326
      5 H2          2.6250    7.2070   -1.6720 hc        1 MOL      0.098326
      6 H3          3.1110    7.9650   -0.1370 hc        1 MOL      0.098326
      7 N1          4.8660    5.8850   -1.9730 n         1 MOL     -0.641601
      8 C3          6.0180    4.9960   -1.8880 c3        1 MOL      0.271647
      9 C4          5.9200    3.8300   -0.9030 c         1 MOL      0.540976
     10 O2          5.7640    2.6670   -1.2720 o         1 MOL     -0.508398
     11 C5          6.3410    4.6100   -3.4310 c3        1 MOL     -0.227390
     12 C6          7.5790    3.7610   -3.6070 c         1 MOL      0.688071
     13 O3          8.4140    3.7800   -2.6790 o         1 MOL     -0.721024
     14 O4          7.6110    2.9860   -4.5810 o         1 MOL     -0.721024
     15 H4          4.1540    5.6630   -2.6590 hn        1 MOL      0.323237
     16 H5          6.9390    5.4850   -1.5660 h1        1 MOL      0.018148
     17 H6          6.4240    5.4980   -4.0370 hc        1 MOL      0.015436
     18 H7          5.5070    4.0050   -3.7830 hc        1 MOL      0.015436
     19 N2          5.8670    4.2010    0.3780 n         1 MOL     -0.562642
     20 C7          5.7090    3.3670    1.6190 c3        1 MOL      0.531912
     21 C8          4.2760    3.3190    2.1120 c         1 MOL      0.372825
     22 O5          3.5220    4.2970    1.9740 o         1 MOL     -0.564323
     23 C9          6.8180    3.7190    2.6240 c3        1 MOL     -0.324393
     24 H8          5.8650    5.2120    0.4140 hn        1 MOL      0.256543
     25 H9          5.8860    2.3710    1.2040 h1        1 MOL     -0.052430
     26 H10         7.7940    3.6870    2.1510 hc        1 MOL      0.075271
     27 H11         6.7670    4.6910    3.1230 hc        1 MOL      0.075271
     28 H12         6.8010    3.0140    3.4550 hc        1 MOL      0.075271
     29 N3          3.7320    2.2470    2.7070 n         1 MOL     -0.341256
     30 C10         4.4260    0.9780    3.0800 c3        1 MOL      0.013313
     31 C11         4.3430   -0.1770    2.1030 c         1 MOL      0.655677
     32 O6          3.3690   -0.3810    1.3960 o         1 MOL     -0.684367
     33 C12         4.0110    0.5770    4.5130 c3        1 MOL     -0.285302
     34 C13         2.5200    0.5820    4.7760 c         1 MOL      0.718489
     35 O7          1.7200    0.7110    3.7870 o         1 MOL     -0.656670
     36 O8          2.0880    0.3630    5.8960 o         1 MOL     -0.656670
     37 H13         2.7910    2.3740    3.0390 hn        1 MOL      0.262056
     38 H14         5.5000    1.0750    3.2440 h1        1 MOL      0.019477
     39 H15         4.3570    1.4280    5.1000 hc        1 MOL      0.058586
     40 H16         4.4370   -0.3690    4.8580 hc        1 MOL      0.058586
     41 N4          5.3940   -1.0170    2.1470 n         1 MOL     -0.485496
     42 C14         5.7120   -2.0200    1.2060 c3        1 MOL      0.029701
     43 C15         6.4310   -1.3060    0.0550 c         1 MOL      0.596829
     44 O9          6.5330   -0.0930    0.0100 o         1 MOL     -0.456469
     45 H17         6.1180   -0.7820    2.8150 hn        1 MOL      0.289750
     46 H18         4.8290   -2.5330    0.8300 h1        1 MOL      0.073303
     47 H19         6.3670   -2.7110    1.7280 h1        1 MOL      0.073303
     48 N5          6.8530   -2.0850   -0.9580 n         1 MOL     -0.725091
     49 C16         6.4850   -3.4950   -1.3180 c3        1 MOL      0.213469
     50 C17         5.2850   -3.5710   -2.3930 c         1 MOL      0.612253
     51 O10         5.0760   -4.6560   -2.8570 o         1 MOL     -0.548657
     52 C18         7.7290   -4.3390   -1.7230 c3        1 MOL     -0.256309
     53 C19         8.7440   -4.6470   -0.6360 c         1 MOL      0.685501
     54 N6          8.3840   -5.5930    0.2100 n         1 MOL     -0.780808
     55 O11         9.9030   -4.1690   -0.5970 o         1 MOL     -0.553807
     56 H20         7.3560   -1.6070   -1.6920 hn        1 MOL      0.388092
     57 H21         6.0070   -3.9750   -0.4660 h1        1 MOL     -0.002531
     58 H22         8.1330   -3.7400   -2.5390 hc        1 MOL      0.080978
     59 H23         7.3420   -5.2740   -2.1250 hc        1 MOL      0.080978
     60 H24         7.4690   -6.0190    0.2880 hn        1 MOL      0.355736
     61 H25         9.0480   -5.8900    0.9130 hn        1 MOL      0.355736
     62 N7          4.3780   -2.5720   -2.4970 n         1 MOL     -0.560287
     63 C20         3.1390   -2.6890   -3.3050 c3        1 MOL      0.034946
     64 C21         2.0350   -3.4630   -2.6580 c         1 MOL      0.740408
     65 O12         0.9560   -3.5600   -3.1640 o         1 MOL     -0.636174
     66 H26         4.5050   -1.7450   -1.9210 hn        1 MOL      0.341136
     67 H27         3.3240   -3.1580   -4.2720 h1        1 MOL      0.077402
     68 H28         2.7310   -1.7170   -3.5950 h1        1 MOL      0.077402
     69 N8          2.2430   -4.0420   -1.4740 n         1 MOL     -0.567421
     70 C22         1.1320   -4.7150   -0.8240 c3        1 MOL     -0.087111
     71 C23         0.0570   -3.7740   -0.3320 c         1 MOL      0.436189
     72 O13         0.4010   -2.6630    0.1000 o         1 MOL     -0.392034
     73 C24         1.6380   -5.5940    0.2790 c3        1 MOL      0.409631
     74 C25         2.0130   -7.0020   -0.2450 c3        1 MOL     -0.343876
     75 O14         2.8750   -5.0340    0.8810 oh        1 MOL     -0.626671
     76 H29         3.1810   -4.2010   -1.1140 hn        1 MOL      0.324386
     77 H30         0.6230   -5.3470   -1.5540 h1        1 MOL      0.110327
     78 H31         0.8460   -5.6710    1.0260 h1        1 MOL     -0.002545
     79 H32         2.6750   -4.2050    1.3220 ho        1 MOL      0.354702
     80 H33         2.7240   -6.9440   -1.0670 hc        1 MOL      0.091404
     81 H34         2.4920   -7.5990    0.5380 hc        1 MOL      0.091404
     82 H35         1.0870   -7.4520   -0.5890 hc        1 MOL      0.091404
     83 N9         -1.2110   -4.0040   -0.5810 n         1 MOL     -0.329151
     84 C26        -2.2650   -3.0180   -0.4550 c3        1 MOL      0.125462
     85 C27        -3.0930   -3.0250    0.8680 c         1 MOL      0.242892
     86 O15        -3.6400   -4.0840    1.2150 o         1 MOL     -0.545814
     87 C28        -3.2550   -2.9740   -1.6860 c3        1 MOL      0.184411
     88 C29        -3.6470   -1.5420   -2.0190 c3        1 MOL     -0.018772
     89 C30        -2.6690   -3.6060   -2.9600 c3        1 MOL     -0.266106
     90 C31        -4.5590   -1.2970   -3.1810 c3        1 MOL     -0.465061
     91 H36        -1.4150   -4.8940   -1.0240 hn        1 MOL      0.232014
     92 H37        -1.8030   -2.0370   -0.4200 h1        1 MOL     -0.012918
     93 H38        -4.1390   -3.5860   -1.5360 hc        1 MOL     -0.020118
     94 H39        -2.7500   -1.0040   -2.3380 hc        1 MOL      0.069263
     95 H40        -4.1300   -1.0640   -1.1660 hc        1 MOL      0.069263
     96 H41        -1.9430   -2.9010   -3.3820 hc        1 MOL      0.074429
     97 H42        -2.3820   -4.6460   -2.7890 hc        1 MOL      0.074429
     98 H43        -3.4070   -3.7650   -3.7380 hc        1 MOL      0.074429
     99 H44        -4.0300   -1.5630   -4.0950 hc        1 MOL      0.095848
    100 H45        -5.3480   -2.0200   -2.9800 hc        1 MOL      0.095848
    101 H46        -4.9440   -0.2890   -3.0640 hc        1 MOL      0.095848
    102 N10        -3.1120   -1.9080    1.5440 n         1 MOL      0.077785
    103 C32        -3.8260   -1.7110    2.7820 c3        1 MOL     -0.052498
    104 C33        -5.2260   -1.3910    2.3540 c         1 MOL      0.468728
    105 O16        -6.1720   -1.7750    3.0620 o         1 MOL     -0.597088
    106 C34        -3.2230   -0.5870    3.6510 c3        1 MOL     -0.304332
    107 C35        -1.6870   -0.4260    3.5270 c         1 MOL      0.830717
    108 O17        -1.1870    0.7140    3.5100 o         1 MOL     -0.760195
    109 O18        -0.9470   -1.3620    3.4290 o         1 MOL     -0.760195
    110 H47        -2.4970   -1.2250    1.1340 hn        1 MOL     -0.167315
    111 H48        -3.9150   -2.6640    3.2890 h1        1 MOL      0.120401
    112 H49        -3.5940   -0.8180    4.6420 hc        1 MOL      0.103320
    113 H50        -3.7160    0.3590    3.4390 hc        1 MOL      0.103320
    114 N11        -5.5170   -0.8370    1.2250 n         1 MOL     -0.517421
    115 C36        -6.9220   -0.5380    0.8020 c3        1 MOL      0.594314
    116 C37        -6.9900    0.8840    0.3160 c         1 MOL      0.073340
    117 O19        -7.2530    1.0820   -0.9370 o         1 MOL     -0.471617
    118 C38        -7.3700   -1.6350   -0.2150 c3        1 MOL     -0.485609
    119 C39        -8.7790   -1.4720   -0.7410 ca        1 MOL      0.037230
    120 C40        -9.8220   -0.7650   -0.0870 ca        1 MOL     -0.027041
    121 C41        -9.1690   -2.1130   -1.9460 ca        1 MOL     -0.027041
    122 C42       -11.1800   -0.8060   -0.6110 ca        1 MOL     -0.262035
    123 C43       -10.4440   -2.0580   -2.5430 ca        1 MOL     -0.262035
    124 C44       -11.4680   -1.3480   -1.8960 ca        1 MOL     -0.006475
    125 H51        -4.6820   -0.4780    0.7760 hn        1 MOL      0.368020
    126 H52        -7.6140   -0.7350    1.6320 h1        1 MOL      0.005610
    127 H53        -7.3940   -2.6050    0.2800 hc        1 MOL      0.160050
    128 H54        -6.7120   -1.8220   -1.0680 hc        1 MOL      0.160050
    129 H55        -9.7780   -0.3820    0.9200 ha        1 MOL      0.083847
    130 H56        -8.5050   -2.8200   -2.4250 ha        1 MOL      0.083847
    131 H57       -11.9860   -0.2510   -0.1490 ha        1 MOL      0.132898
    132 H58       -10.6470   -2.6030   -3.4520 ha        1 MOL      0.132898
    133 H59       -12.4970   -1.2860   -2.2010 ha        1 MOL      0.076005
    134 N12        -6.7680    1.9020    1.2230 n         1 MOL     -0.026428
    135 C45        -6.7540    3.2700    0.8080 c3        1 MOL      0.026154
    136 C46        -5.8770    3.7300   -0.3660 c         1 MOL      0.188364
    137 O20        -6.1410    4.7400   -1.0460 o         1 MOL     -0.484586
    138 C47        -6.3430    4.0000    2.0810 c3        1 MOL     -0.182512
    139 C48        -6.8010    3.0810    3.1860 c3        1 MOL     -0.097176
    140 C49        -6.5870    1.6800    2.6160 c3        1 MOL      0.041684
    141 H60        -7.7890    3.4750    0.5550 h1        1 MOL      0.093381
    142 H61        -5.2590    4.0370    2.2150 hc        1 MOL      0.098594
    143 H62        -6.9130    4.9200    2.2120 hc        1 MOL      0.098594
    144 H63        -6.2650    3.0720    4.1450 hc        1 MOL      0.039415
    145 H64        -7.8260    3.4100    3.2930 hc        1 MOL      0.039415
    146 H65        -5.5920    1.2610    2.7770 h1        1 MOL      0.042709
    147 H66        -7.3230    1.0150    3.0600 h1        1 MOL      0.042709
    148 N13        -4.9450    2.8950   -0.7820 n         1 MOL     -0.020754
    149 C50        -4.1410    3.1040   -1.9880 c3        1 MOL     -0.243809
    150 C51        -5.0520    3.0810   -3.2740 c         1 MOL      0.501256
    151 O21        -5.0420    3.9890   -4.0800 o         1 MOL     -0.530486
    152 C52        -2.9680    2.1940   -2.0800 c3        1 MOL     -0.089973
    153 C53        -1.9650    2.1100   -0.9150 c3        1 MOL     -0.037555
    154 C54        -2.4050    1.1640    0.1650 c         1 MOL      0.620806
    155 O22        -1.5670    0.3210    0.5260 o         1 MOL     -0.600550
    156 O23        -3.5010    1.4100    0.7690 o         1 MOL     -0.600550
    157 H67        -4.7550    2.0060   -0.3430 hn        1 MOL      0.218158
    158 H68        -3.7590    4.1210   -1.9150 h1        1 MOL      0.142491
    159 H69        -2.3190    2.6290   -2.8530 hc        1 MOL      0.034159
    160 H70        -3.2430    1.1640   -2.3000 hc        1 MOL      0.034159
    161 H71        -1.7540    3.1020   -0.5170 hc        1 MOL      0.025868
    162 H72        -1.0350    1.7130   -1.3220 hc        1 MOL      0.025868
    163 N14        -5.9190    2.0490   -3.3340 n         1 MOL     -0.228006
    164 C55        -6.9560    1.8240   -4.3470 c3        1 MOL     -0.254909
    165 H73        -7.8830    2.3000   -4.0290 h1        1 MOL      0.099175
    166 H74        -6.6360    2.2510   -5.2970 h1        1 MOL      0.099175
    167 H75        -7.1210    0.7530   -4.4680 h1        1 MOL      0.099175
    168 H76        -6.0930    1.6310   -2.4310 hn        1 MOL      0.335602
    169 Ca1         0.6580   -0.2730    1.6900 Ca        1 MOL      1.778635
    170 O24         0.8910    2.7420    1.6780 oh        1 MOL     -0.915925
    171 H77         1.3310    3.0860    2.4540 ho        1 MOL      0.438278
    172 H78         0.5890    3.5260    1.2070 ho        1 MOL      0.438278
    173 O25         1.8630   -2.5930    2.7950 oh        1 MOL     -0.915925
    174 H79         1.1680   -3.1190    3.1870 ho        1 MOL      0.438278
    175 H80         2.6020   -2.6940    3.3960 ho        1 MOL      0.438278
    176 O26         1.3170    0.1150   -0.8650 oh        1 MOL     -0.915925
    177 H81         2.2610    0.0860   -1.0040 ho        1 MOL      0.438278
    178 H82         1.0420    0.9370   -1.2750 ho        1 MOL      0.438278
@<TRIPOS>BOND
     1    1    2 1   
     2    1    4 1   
     3    1    5 1   
     4    1    6 1   
     5    2    3 2   
     6    2    7 1   
     7    7    8 1   
     8    7   15 1   
     9    8    9 1   
    10    8   11 1   
    11    8   16 1   
    12    9   10 2   
    13    9   19 1   
    14   11   12 1   
    15   11   17 1   
    16   11   18 1   
    17   12   13 1   
    18   12   14 1   
    19   19   20 1   
    20   19   24 1   
    21   20   21 1   
    22   20   23 1   
    23   20   25 1   
    24   21   22 2   
    25   21   29 1   
    26   23   26 1   
    27   23   27 1   
    28   23   28 1   
    29   29   30 1   
    30   29   37 1   
    31   30   31 1   
    32   30   33 1   
    33   30   38 1   
    34   31   32 2   
    35   31   41 1   
    36   33   34 1   
    37   33   39 1   
    38   33   40 1   
    39   34   35 1   
    40   34   36 1   
    41   41   42 1   
    42   41   45 1   
    43   42   43 1   
    44   42   46 1   
    45   42   47 1   
    46   43   44 2   
    47   43   48 1   
    48   48   49 1   
    49   48   56 1   
    50   49   50 1   
    51   49   52 1   
    52   49   57 1   
    53   50   51 2   
    54   50   62 1   
    55   52   53 1   
    56   52   58 1   
    57   52   59 1   
    58   53   54 1   
    59   53   55 2   
    60   54   60 1   
    61   54   61 1   
    62   62   63 1   
    63   62   66 1   
    64   63   64 1   
    65   63   67 1   
    66   63   68 1   
    67   64   65 2   
    68   64   69 1   
    69   69   70 1   
    70   69   76 1   
    71   70   71 1   
    72   70   73 1   
    73   70   77 1   
    74   71   72 2   
    75   71   83 1   
    76   73   74 1   
    77   73   75 1   
    78   73   78 1   
    79   74   80 1   
    80   74   81 1   
    81   74   82 1   
    82   75   79 1   
    83   83   84 1   
    84   83   91 1   
    85   84   85 1   
    86   84   87 1   
    87   84   92 1   
    88   85   86 2   
    89   85  102 1   
    90   87   88 1   
    91   87   89 1   
    92   87   93 1   
    93   88   90 1   
    94   88   94 1   
    95   88   95 1   
    96   89   96 1   
    97   89   97 1   
    98   89   98 1   
    99   90   99 1   
   100   90  100 1   
   101   90  101 1   
   102  102  103 1   
   103  102  110 1   
   104  103  104 1   
   105  103  106 1   
   106  103  111 1   
   107  104  105 2   
   108  104  114 1   
   109  106  107 1   
   110  106  112 1   
   111  106  113 1   
   112  107  108 1   
   113  107  109 1   
   114  114  115 1   
   115  114  125 1   
   116  115  116 1   
   117  115  118 1   
   118  115  126 1   
   119  116  117 2   
   120  116  134 1   
   121  118  119 1   
   122  118  127 1   
   123  118  128 1   
   124  119  120 ar  
   125  119  121 ar  
   126  120  122 ar  
   127  120  129 1   
   128  121  123 ar  
   129  121  130 1   
   130  122  124 ar  
   131  122  131 1   
   132  123  124 ar  
   133  123  132 1   
   134  124  133 1   
   135  134  135 1   
   136  134  140 1   
   137  135  136 1   
   138  135  138 1   
   139  135  141 1   
   140  136  137 2   
   141  136  148 1   
   142  138  139 1   
   143  138  142 1   
   144  138  143 1   
   145  139  140 1   
   146  139  144 1   
   147  139  145 1   
   148  140  146 1   
   149  140  147 1   
   150  148  149 1   
   151  148  157 1   
   152  149  150 1   
   153  149  152 1   
   154  149  158 1   
   155  150  151 2   
   156  150  163 1   
   157  152  153 1   
   158  152  159 1   
   159  152  160 1   
   160  153  154 1   
   161  153  161 1   
   162  153  162 1   
   163  154  155 1   
   164  154  156 1   
   165  163  164 1   
   166  163  168 1   
   167  164  165 1   
   168  164  166 1   
   169  164  167 1   
   170  170  171 1   
   171  170  172 1   
   172  173  174 1   
   173  173  175 1   
   174  176  177 1   
   175  176  178 1   
@<TRIPOS>SUBSTRUCTURE
     1 MOL         1 TEMP              0 ****  ****    0 ROOT
