@<TRIPOS>MOLECULE
MOL
  186   183     1     0     0
SMALL
resp


@<TRIPOS>ATOM
      1 C1          3.6600    4.1000   -3.4730 c3        1 MOL     -0.419404
      2 C2          4.6050    3.2610   -2.6290 c         1 MOL      0.755624
      3 O1          4.3480    3.0650   -1.4320 o         1 MOL     -0.541718
      4 H1          3.7630    5.1500   -3.1980 hc        1 MOL      0.098335
      5 H2          3.9060    3.9760   -4.5280 hc        1 MOL      0.098335
      6 H3          2.6330    3.7780   -3.2980 hc        1 MOL      0.098335
      7 N1          5.6660    2.7010   -3.2090 n         1 MOL     -0.619169
      8 C3          6.5890    1.7210   -2.6510 c3        1 MOL      0.228155
      9 C4          5.8600    0.4280   -2.1090 c         1 MOL      0.286782
     10 O2          5.3780    0.3710   -0.9250 o         1 MOL     -0.409259
     11 C5          7.6050    2.2980   -1.6450 c3        1 MOL     -0.184078
     12 C6          7.0970    3.1300   -0.5260 c         1 MOL      0.747690
     13 O3          6.6330    2.5580    0.4850 o         1 MOL     -0.726180
     14 O4          7.1490    4.3650   -0.5740 o         1 MOL     -0.726180
     15 H4          5.6500    2.7680   -4.2220 hn        1 MOL      0.288035
     16 H5          7.2820    1.3840   -3.4250 h1        1 MOL      0.010258
     17 H6          8.2720    2.9170   -2.2500 hc        1 MOL      0.023398
     18 H7          8.2410    1.4470   -1.3860 hc        1 MOL      0.023398
     19 N2          5.7120   -0.5470   -3.0380 n         1 MOL     -0.348211
     20 C7          5.0020   -1.8450   -2.8910 c3        1 MOL      0.081408
     21 C8          5.6970   -2.8650   -1.9470 c         1 MOL      0.336669
     22 O5          6.4160   -3.7140   -2.4110 o         1 MOL     -0.563673
     23 C9          3.4300   -1.7830   -2.6500 c3        1 MOL      0.211690
     24 C10         2.7550   -3.2110   -2.7880 c3        1 MOL     -0.000442
     25 C11         2.6760   -0.8440   -3.6150 c3        1 MOL     -0.384192
     26 C12         3.1690   -3.8700   -4.0780 c3        1 MOL     -0.127261
     27 H8          6.0250   -0.2470   -3.9550 hn        1 MOL      0.237611
     28 H9          5.0490   -2.2050   -3.9210 h1        1 MOL      0.032495
     29 H10         3.2630   -1.3560   -1.6650 hc        1 MOL     -0.094839
     30 H11         1.6710   -3.2350   -2.7200 hc        1 MOL      0.028559
     31 H12         3.0970   -3.9060   -2.0220 hc        1 MOL      0.028559
     32 H13         2.7350   -1.1310   -4.6660 hc        1 MOL      0.085516
     33 H14         1.6360   -0.7610   -3.3160 hc        1 MOL      0.085516
     34 H15         3.1720    0.1220   -3.4760 hc        1 MOL      0.085516
     35 H16         2.4810   -4.6980   -4.2430 hc        1 MOL      0.008820
     36 H17         3.1750   -3.2080   -4.9490 hc        1 MOL      0.008820
     37 H18         4.1530   -4.3090   -3.9240 hc        1 MOL      0.008820
     38 N3          5.5740   -2.6450   -0.6720 n         1 MOL      0.023134
     39 C13         6.3460   -3.3670    0.3370 c3        1 MOL      0.031121
     40 C14         5.8060   -4.8350    0.5330 c         1 MOL      0.619646
     41 O6          6.5640   -5.7550    0.3810 o         1 MOL     -0.604019
     42 C15         6.5320   -2.5710    1.6780 c3        1 MOL     -0.070436
     43 C16         7.0960   -1.1750    1.5490 c         1 MOL      0.599294
     44 O7          8.2340   -1.0700    1.0110 o         1 MOL     -0.677522
     45 O8          6.3900   -0.2130    1.9760 o         1 MOL     -0.677522
     46 H19         4.9080   -1.9060   -0.4770 hn        1 MOL      0.194638
     47 H20         7.3380   -3.5170   -0.0640 h1        1 MOL      0.041626
     48 H21         7.2010   -3.1990    2.2620 hc        1 MOL      0.019948
     49 H22         5.5620   -2.4480    2.1540 hc        1 MOL      0.019948
     50 N4          4.5880   -5.1420    0.9460 n         1 MOL     -0.600302
     51 C17         3.5400   -4.2150    1.3720 c3        1 MOL      0.165716
     52 C18         3.6580   -3.9410    2.8620 c         1 MOL      0.453528
     53 O9          4.1620   -4.7420    3.5890 o         1 MOL     -0.539059
     54 H23         4.4960   -6.1380    1.0970 hn        1 MOL      0.308265
     55 H24         2.5500   -4.5900    1.1340 h1        1 MOL      0.021769
     56 H25         3.7360   -3.3170    0.7790 h1        1 MOL      0.021769
     57 N5          3.1440   -2.8050    3.3710 n         1 MOL     -0.370901
     58 C19         2.0710   -1.9640    2.8510 c3        1 MOL      0.089700
     59 C20         2.4090   -1.2250    1.5530 c         1 MOL      0.075141
     60 O10         3.6160   -0.9690    1.3880 o         1 MOL     -0.573431
     61 C21         1.7960   -0.8560    3.9270 c3        1 MOL     -0.408094
     62 C22         2.9860    0.1160    4.1600 c         1 MOL      0.863657
     63 O11         3.0880    1.1220    3.4130 o         1 MOL     -0.730627
     64 O12         3.7860   -0.0630    5.1410 o         1 MOL     -0.730627
     65 H26         3.2820   -2.7800    4.3730 hn        1 MOL      0.292529
     66 H27         1.1920   -2.6080    2.7720 h1        1 MOL      0.056638
     67 H28         1.5190   -1.3730    4.8410 hc        1 MOL      0.104150
     68 H29         0.9870   -0.2590    3.5130 hc        1 MOL      0.104150
     69 N6          1.5230   -0.8250    0.6850 n         1 MOL     -0.076186
     70 C23         0.1000   -1.1840    0.8140 c3        1 MOL      0.080169
     71 C24        -0.2810   -2.5510    0.2190 c         1 MOL      0.504787
     72 O13         0.5240   -3.2350   -0.3050 o         1 MOL     -0.544527
     73 H30         1.9080   -0.4800   -0.1770 hn        1 MOL      0.269911
     74 H31        -0.5150   -0.4160    0.3440 h1        1 MOL      0.020354
     75 H32        -0.1560   -1.3220    1.8660 h1        1 MOL      0.020354
     76 N7         -1.5670   -2.8330    0.2330 n         1 MOL     -0.322234
     77 C25        -2.1670   -4.1560   -0.0050 c3        1 MOL      0.115977
     78 C26        -3.0390   -4.1130   -1.3200 c         1 MOL      0.332535
     79 O14        -3.3660   -5.1300   -1.9270 o         1 MOL     -0.513198
     80 C27        -2.7840   -4.6870    1.2470 c3        1 MOL     -0.207023
     81 C28        -3.7210   -3.7680    2.0700 c3        1 MOL     -0.212477
     82 C29        -5.0170   -3.5220    1.2740 c         1 MOL      0.225779
     83 N8         -5.8340   -4.5080    0.9190 n         1 MOL     -0.521503
     84 O15        -5.2560   -2.5040    0.7970 o         1 MOL     -0.485025
     85 H33        -2.1040   -2.1230    0.6970 hn        1 MOL      0.256158
     86 H34        -1.3280   -4.8260   -0.2380 h1        1 MOL      0.110325
     87 H35        -1.9690   -4.8980    1.9350 hc        1 MOL      0.087140
     88 H36        -3.3940   -5.5820    1.1130 hc        1 MOL      0.087140
     89 H37        -3.2760   -2.8720    2.4810 hc        1 MOL      0.123442
     90 H38        -4.0070   -4.3220    2.9650 hc        1 MOL      0.123442
     91 H39        -5.6780   -5.4030    1.3660 hn        1 MOL      0.300534
     92 H40        -6.7160   -4.2570    0.5000 hn        1 MOL      0.300534
     93 N9         -3.4610   -2.8900   -1.7220 n         1 MOL     -0.090066
     94 C30        -4.2110   -2.7380   -2.9720 c3        1 MOL     -0.041889
     95 C31        -5.5590   -2.0990   -2.8960 c         1 MOL      0.349166
     96 O16        -6.3610   -2.2850   -3.8090 o         1 MOL     -0.549070
     97 C32        -3.4620   -1.9300   -4.0150 c3        1 MOL      0.074734
     98 C33        -2.2540   -2.7580   -4.5950 c3        1 MOL     -0.206449
     99 C34        -2.9510   -0.5750   -3.4850 c3        1 MOL     -0.206449
    100 H41        -3.0230   -2.1500   -1.1760 hn        1 MOL      0.079496
    101 H42        -4.4090   -3.7250   -3.4100 h1        1 MOL      0.127895
    102 H43        -4.1350   -1.7170   -4.8480 hc        1 MOL      0.025873
    103 H44        -1.5140   -2.8590   -3.8040 hc        1 MOL      0.059014
    104 H45        -2.5160   -3.7620   -4.9240 hc        1 MOL      0.059014
    105 H46        -1.7060   -2.2520   -5.4020 hc        1 MOL      0.059014
    106 H47        -2.0790   -0.7270   -2.8440 hc        1 MOL      0.059014
    107 H48        -2.5010   -0.0060   -4.3080 hc        1 MOL      0.059014
    108 H49        -3.7200    0.0340   -3.0040 hc        1 MOL      0.059014
    109 N10        -5.9910   -1.5050   -1.7420 n         1 MOL     -0.102037
    110 C35        -7.3490   -0.9350   -1.6530 c3        1 MOL     -0.059965
    111 C36        -7.2290    0.5210   -1.1620 c         1 MOL      0.403107
    112 O17        -8.2170    1.2770   -1.1900 o         1 MOL     -0.520756
    113 C37        -8.2310   -1.7570   -0.6490 c3        1 MOL     -0.084568
    114 C38        -8.4620   -3.2040   -0.9000 c         1 MOL      0.599018
    115 N11        -8.6640   -3.6460   -2.1500 n         1 MOL     -0.739233
    116 O18        -8.5120   -4.0150    0.0290 o         1 MOL     -0.557577
    117 H50        -5.3900   -1.4190   -0.9380 hn        1 MOL      0.342240
    118 H51        -7.9160   -1.0070   -2.5770 h1        1 MOL      0.094934
    119 H52        -9.1520   -1.1830   -0.5870 hc        1 MOL      0.032494
    120 H53        -7.7750   -1.6850    0.3410 hc        1 MOL      0.032494
    121 H54        -8.5750   -3.1080   -2.9910 hn        1 MOL      0.355778
    122 H55        -8.9980   -4.6030   -2.2540 hn        1 MOL      0.355778
    123 N12        -6.0840    0.9440   -0.6590 n         1 MOL     -0.289718
    124 C39        -5.9620    2.2450    0.0390 c3        1 MOL      0.341966
    125 C40        -4.5240    2.8740    0.0890 c         1 MOL      0.296426
    126 O19        -3.4980    2.1500   -0.0270 o         1 MOL     -0.363371
    127 C41        -6.6310    2.2090    1.4550 c3        1 MOL     -0.510106
    128 C42        -6.1510    1.1350    2.3630 ca        1 MOL      0.196672
    129 C43        -6.8680   -0.0520    2.4200 ca        1 MOL     -0.179960
    130 C44        -5.0250    1.3690    3.1190 ca        1 MOL     -0.179960
    131 C45        -6.3210   -1.1310    3.1650 ca        1 MOL     -0.378503
    132 C46        -4.5380    0.3670    3.9920 ca        1 MOL     -0.378503
    133 C47        -5.0750   -0.9280    3.9120 ca        1 MOL      0.493035
    134 O20        -4.5810   -1.9060    4.7070 oh        1 MOL     -0.502063
    135 H56        -5.2320    0.4300   -0.8550 hn        1 MOL      0.092984
    136 H57        -6.4740    3.0000   -0.5630 h1        1 MOL     -0.011275
    137 H58        -7.6920    2.0470    1.2430 hc        1 MOL      0.152692
    138 H59        -6.3880    3.1150    1.9990 hc        1 MOL      0.152692
    139 H60        -7.7640   -0.1390    1.8150 ha        1 MOL      0.167886
    140 H61        -4.5100    2.3130    3.0390 ha        1 MOL      0.167886
    141 H62        -6.7320   -2.1320    3.1520 ha        1 MOL      0.205843
    142 H63        -3.6480    0.5400    4.5760 ha        1 MOL      0.205843
    143 H64        -5.3380   -2.4250    4.9960 ho        1 MOL      0.321997
    144 N13        -4.5050    4.2030    0.3790 n         1 MOL     -0.423762
    145 C48        -3.3620    5.1490    0.6530 c3        1 MOL      0.012671
    146 C49        -2.1130    5.3650   -0.3250 c         1 MOL      0.197114
    147 O21        -1.3800    6.3580   -0.2330 o         1 MOL     -0.456281
    148 C50        -2.7370    4.9210    2.0450 c3        1 MOL     -0.002865
    149 C51        -3.5660    5.3480    3.2580 c3        1 MOL     -0.035839
    150 C52        -2.7160    5.1400    4.6070 c         1 MOL      0.518087
    151 O22        -2.5640    3.9490    4.9700 o         1 MOL     -0.643273
    152 O23        -2.0950    6.1000    5.1160 o         1 MOL     -0.643273
    153 H65        -5.4160    4.6430    0.4770 hn        1 MOL      0.282996
    154 H66        -3.7720    6.1540    0.7060 h1        1 MOL      0.090433
    155 H67        -1.7720    5.4100    2.2440 hc        1 MOL      0.089735
    156 H68        -2.5280    3.8580    2.1630 hc        1 MOL      0.089735
    157 H69        -4.5700    4.9270    3.1790 hc        1 MOL     -0.050935
    158 H70        -3.6830    6.4320    3.2480 hc        1 MOL     -0.050935
    159 N14        -1.7710    4.3510   -1.1560 n         1 MOL     -0.055607
    160 C53        -0.5650    4.3060   -1.9530 c3        1 MOL     -0.175022
    161 C54        -0.8940    5.0570   -3.2950 c         1 MOL      0.440581
    162 O24         0.0400    5.3850   -4.0530 o         1 MOL     -0.523361
    163 C55        -0.1410    2.8430   -2.1790 c3        1 MOL      0.116721
    164 C56         0.0840    1.9310   -0.9990 c3        1 MOL      0.180931
    165 C57         1.4690    2.2330   -0.3000 c         1 MOL      0.557498
    166 O25         1.4970    3.2380    0.4320 o         1 MOL     -0.638999
    167 O26         2.4640    1.4580   -0.3350 o         1 MOL     -0.638999
    168 H71        -2.3390    3.5400   -1.3310 hn        1 MOL      0.164077
    169 H72         0.2750    4.8520   -1.5090 h1        1 MOL      0.208194
    170 H73         0.8280    2.8060   -2.6640 hc        1 MOL     -0.050219
    171 H74        -0.9450    2.3740   -2.7600 hc        1 MOL     -0.050219
    172 H75         0.2640    0.9230   -1.3570 hc        1 MOL     -0.111574
    173 H76        -0.7780    1.8480   -0.3270 hc        1 MOL     -0.111574
    174 N15        -2.1790    5.3520   -3.5410 n         1 MOL     -0.206471
    175 C58        -2.7850    6.0210   -4.7580 c3        1 MOL     -0.282094
    176 H77        -2.7820    7.1010   -4.6170 h1        1 MOL      0.112518
    177 H78        -2.1980    5.7680   -5.6410 h1        1 MOL      0.112518
    178 H79        -3.8100    5.6740   -4.8900 h1        1 MOL      0.112518
    179 H80        -2.8340    5.0330   -2.8470 hn        1 MOL      0.192424
    180 Ca1         4.4070    1.5110    1.1440 Ca        1 MOL      1.733090
    181 O27         3.6280    3.9330    1.7740 oh        1 MOL     -0.873584
    182 H81         3.3120    4.5780    2.3960 ho        1 MOL      0.415290
    183 H82         2.8790    3.7370    1.2040 ho        1 MOL      0.415290
    184 O28         5.7630    1.6900    3.9220 oh        1 MOL     -0.873584
    185 H83         5.1060    1.5090    4.5840 ho        1 MOL      0.415290
    186 H84         6.1340    0.8410    3.7070 ho        1 MOL      0.415290
@<TRIPOS>BOND
     1    1    2 1   
     2    1    4 1   
     3    1    5 1   
     4    1    6 1   
     5    2    3 2   
     6    2    7 1   
     7    7    8 1   
     8    7   15 1   
     9    8    9 1   
    10    8   11 1   
    11    8   16 1   
    12    9   10 2   
    13    9   19 1   
    14   11   12 1   
    15   11   17 1   
    16   11   18 1   
    17   12   13 1   
    18   12   14 1   
    19   19   20 1   
    20   19   27 1   
    21   20   21 1   
    22   20   23 1   
    23   20   28 1   
    24   21   22 2   
    25   21   38 1   
    26   23   24 1   
    27   23   25 1   
    28   23   29 1   
    29   24   26 1   
    30   24   30 1   
    31   24   31 1   
    32   25   32 1   
    33   25   33 1   
    34   25   34 1   
    35   26   35 1   
    36   26   36 1   
    37   26   37 1   
    38   38   39 1   
    39   38   46 1   
    40   39   40 1   
    41   39   42 1   
    42   39   47 1   
    43   40   41 2   
    44   40   50 1   
    45   42   43 1   
    46   42   48 1   
    47   42   49 1   
    48   43   44 1   
    49   43   45 1   
    50   50   51 1   
    51   50   54 1   
    52   51   52 1   
    53   51   55 1   
    54   51   56 1   
    55   52   53 2   
    56   52   57 1   
    57   57   58 1   
    58   57   65 1   
    59   58   59 1   
    60   58   61 1   
    61   58   66 1   
    62   59   60 2   
    63   59   69 1   
    64   61   62 1   
    65   61   67 1   
    66   61   68 1   
    67   62   63 1   
    68   62   64 1   
    69   69   70 1   
    70   69   73 1   
    71   70   71 1   
    72   70   74 1   
    73   70   75 1   
    74   71   72 2   
    75   71   76 1   
    76   76   77 1   
    77   76   85 1   
    78   77   78 1   
    79   77   80 1   
    80   77   86 1   
    81   78   79 2   
    82   78   93 1   
    83   80   81 1   
    84   80   87 1   
    85   80   88 1   
    86   81   82 1   
    87   81   89 1   
    88   81   90 1   
    89   82   83 1   
    90   82   84 2   
    91   83   91 1   
    92   83   92 1   
    93   93   94 1   
    94   93  100 1   
    95   94   95 1   
    96   94   97 1   
    97   94  101 1   
    98   95   96 2   
    99   95  109 1   
   100   97   98 1   
   101   97   99 1   
   102   97  102 1   
   103   98  103 1   
   104   98  104 1   
   105   98  105 1   
   106   99  106 1   
   107   99  107 1   
   108   99  108 1   
   109  109  110 1   
   110  109  117 1   
   111  110  111 1   
   112  110  113 1   
   113  110  118 1   
   114  111  112 2   
   115  111  123 1   
   116  113  114 1   
   117  113  119 1   
   118  113  120 1   
   119  114  115 1   
   120  114  116 2   
   121  115  121 1   
   122  115  122 1   
   123  123  124 1   
   124  123  135 1   
   125  124  125 1   
   126  124  127 1   
   127  124  136 1   
   128  125  126 2   
   129  125  144 1   
   130  127  128 1   
   131  127  137 1   
   132  127  138 1   
   133  128  129 ar  
   134  128  130 ar  
   135  129  131 ar  
   136  129  139 1   
   137  130  132 ar  
   138  130  140 1   
   139  131  133 ar  
   140  131  141 1   
   141  132  133 ar  
   142  132  142 1   
   143  133  134 1   
   144  134  143 1   
   145  144  145 1   
   146  144  153 1   
   147  145  146 1   
   148  145  148 1   
   149  145  154 1   
   150  146  147 2   
   151  146  159 1   
   152  148  149 1   
   153  148  155 1   
   154  148  156 1   
   155  149  150 1   
   156  149  157 1   
   157  149  158 1   
   158  150  151 1   
   159  150  152 1   
   160  159  160 1   
   161  159  168 1   
   162  160  161 1   
   163  160  163 1   
   164  160  169 1   
   165  161  162 2   
   166  161  174 1   
   167  163  164 1   
   168  163  170 1   
   169  163  171 1   
   170  164  165 1   
   171  164  172 1   
   172  164  173 1   
   173  165  166 1   
   174  165  167 1   
   175  174  175 1   
   176  174  179 1   
   177  175  176 1   
   178  175  177 1   
   179  175  178 1   
   180  181  182 1   
   181  181  183 1   
   182  184  185 1   
   183  184  186 1   
@<TRIPOS>SUBSTRUCTURE
     1 MOL         1 TEMP              0 ****  ****    0 ROOT
