@<TRIPOS>MOLECULE
MOL
  182   178     1     0     0
SMALL
resp


@<TRIPOS>ATOM
      1 C1         -6.2050    2.3320   -1.1190 c3        1 MOL     -0.322504
      2 C2         -7.3080    1.8290   -0.2040 c         1 MOL      0.767345
      3 O1         -6.9920    1.4320    0.9390 o         1 MOL     -0.542504
      4 H1         -5.6090    3.0780   -0.5930 hc        1 MOL      0.064536
      5 H2         -5.5660    1.4990   -1.4120 hc        1 MOL      0.064536
      6 H3         -6.6470    2.7820   -2.0080 hc        1 MOL      0.064536
      7 N1         -8.5810    1.7180   -0.6800 n         1 MOL     -0.544422
      8 C3         -9.6110    0.8740   -0.0280 c3        1 MOL     -0.010675
      9 C4         -9.3030   -0.5820    0.3060 c         1 MOL      0.540223
     10 O2         -9.7020   -1.0810    1.3470 o         1 MOL     -0.498930
     11 C5        -10.4160    1.6460    0.9660 c3        1 MOL     -0.219519
     12 C6        -10.6200    3.0700    0.7500 c         1 MOL      0.749486
     13 O3        -11.1100    3.4690   -0.3100 o         1 MOL     -0.646730
     14 O4        -10.3940    3.8540    1.6720 o         1 MOL     -0.646730
     15 H4         -8.6990    1.9410   -1.6560 hn        1 MOL      0.313354
     16 H5        -10.2390    0.7740   -0.9260 h1        1 MOL      0.044898
     17 H6        -10.0300    1.4550    1.9760 hc        1 MOL      0.083760
     18 H7        -11.3820    1.1550    1.1170 hc        1 MOL      0.083760
     19 N2         -8.4730   -1.2860   -0.4730 n         1 MOL     -0.353458
     20 C7         -8.1140   -2.7280   -0.3440 c3        1 MOL      0.019898
     21 C8         -6.6790   -3.0050    0.1440 c         1 MOL      0.606167
     22 O5         -6.2860   -4.1540    0.3500 o         1 MOL     -0.580910
     23 C9         -8.4370   -3.5910   -1.5340 c3        1 MOL      0.022109
     24 C10        -7.5510   -3.2480   -2.7720 c3        1 MOL     -0.128635
     25 C11        -8.0980   -4.1050   -3.9300 c3        1 MOL      0.221073
     26 C12        -7.2430   -4.0060   -5.1210 c3        1 MOL      0.067378
     27 N3         -7.7480   -4.7630   -6.2600 n4        1 MOL     -0.375436
     28 H8         -8.1070   -0.8990   -1.3280 hn        1 MOL      0.183584
     29 H9         -8.6990   -3.1600    0.4680 h1        1 MOL      0.092189
     30 H10        -9.4900   -3.3970   -1.7250 hc        1 MOL      0.023456
     31 H11        -8.3890   -4.6220   -1.1990 hc        1 MOL      0.023456
     32 H12        -6.5150   -3.5070   -2.5500 hc        1 MOL      0.013906
     33 H13        -7.7590   -2.2180   -3.0820 hc        1 MOL      0.013906
     34 H14        -9.1100   -3.7860   -4.1770 hc        1 MOL     -0.030117
     35 H15        -8.1600   -5.1330   -3.5620 hc        1 MOL     -0.030117
     36 H16        -6.2990   -4.4630   -4.8300 hx        1 MOL      0.053625
     37 H17        -6.9930   -2.9900   -5.4440 hx        1 MOL      0.053625
     38 H18        -8.5440   -4.2460   -6.5930 hn        1 MOL      0.256518
     39 H19        -7.1600   -4.7120   -7.0770 hn        1 MOL      0.256518
     40 H20        -7.8160   -5.7490   -6.0420 hn        1 MOL      0.256518
     41 N4         -5.8910   -1.9400    0.4120 n         1 MOL     -0.405748
     42 C13        -4.5190   -2.0190    0.8480 c3        1 MOL     -0.039893
     43 C14        -4.1790   -2.1830    2.2870 c         1 MOL      0.717964
     44 O6         -4.6240   -1.3980    3.1120 o         1 MOL     -0.534600
     45 C15        -3.8680   -0.8250    0.1580 c3        1 MOL     -0.115622
     46 C16        -2.3680   -1.1010    0.0510 c         1 MOL      0.844436
     47 O7         -1.6140   -0.8710    1.0180 o         1 MOL     -0.815065
     48 O8         -2.0170   -1.6730   -1.0250 o         1 MOL     -0.815065
     49 H21        -6.2230   -0.9980    0.2550 hn        1 MOL      0.226031
     50 H22        -4.1270   -2.9550    0.4470 h1        1 MOL      0.041111
     51 H23        -4.0740    0.1370    0.6410 hc        1 MOL      0.041052
     52 H24        -4.2760   -0.7160   -0.8390 hc        1 MOL      0.041052
     53 N5         -3.2870   -3.1190    2.6670 n         1 MOL     -0.571993
     54 C17        -2.8500   -3.2470    4.1000 c3        1 MOL     -0.025545
     55 C18        -2.1270   -2.0330    4.7390 c         1 MOL      0.503944
     56 O9         -2.1350   -2.0020    5.9610 o         1 MOL     -0.547317
     57 H25        -2.8110   -3.6220    1.9310 hn        1 MOL      0.291423
     58 H26        -2.1870   -4.1080    4.2230 h1        1 MOL      0.089468
     59 H27        -3.7110   -3.4660    4.7220 h1        1 MOL      0.089468
     60 N6         -1.4200   -1.1360    4.0750 n         1 MOL     -0.465008
     61 C19        -0.4850   -0.2130    4.6940 c3        1 MOL      0.057760
     62 C20        -0.6430    1.1710    4.1770 c         1 MOL      0.317057
     63 O10         0.1690    2.1380    4.4780 o         1 MOL     -0.516659
     64 C21         0.9180   -0.7520    4.6140 c3        1 MOL     -0.386407
     65 C22         1.5160   -0.9160    3.1960 c         1 MOL      0.549317
     66 N7          2.6150   -0.3030    2.8690 n         1 MOL     -0.566577
     67 O11         0.9220   -1.4660    2.2730 o         1 MOL     -0.575071
     68 H28        -1.4090   -1.1550    3.0640 hn        1 MOL      0.567641
     69 H29        -0.7500   -0.0840    5.7400 h1        1 MOL      0.154223
     70 H30         0.9370   -1.7620    5.0460 hc        1 MOL      0.136148
     71 H31         1.5850   -0.0880    5.1640 hc        1 MOL      0.136148
     72 H32         3.1500   -0.0770    3.6940 hn        1 MOL      0.306043
     73 H33         3.0830   -0.4040    1.9770 hn        1 MOL      0.306043
     74 N8         -1.5610    1.3730    3.2500 n         1 MOL     -0.017291
     75 C23        -2.0110    2.6820    2.7910 c3        1 MOL     -0.258946
     76 C24        -1.4320    3.2940    1.4950 c         1 MOL      0.433534
     77 O12        -1.5190    4.5380    1.2700 o         1 MOL     -0.498904
     78 H34        -2.1890    0.6020    3.0840 hn        1 MOL      0.099905
     79 H35        -1.7670    3.3280    3.6290 h1        1 MOL      0.139948
     80 H36        -3.0830    2.6260    2.6030 h1        1 MOL      0.139948
     81 N9         -0.8110    2.4510    0.7060 n         1 MOL     -0.159776
     82 C25         0.0550    2.8620   -0.3620 c3        1 MOL      0.293231
     83 C26         1.1450    1.8170   -0.4790 c         1 MOL      0.307320
     84 O13         0.9360    0.6590   -0.1450 o         1 MOL     -0.461243
     85 C27        -0.7090    2.9690   -1.6920 c3        1 MOL     -0.123389
     86 C28        -1.2750    4.3770   -2.0480 ca        1 MOL     -0.048361
     87 C29        -0.4710    5.5570   -2.1260 ca        1 MOL     -0.084508
     88 C30        -2.6230    4.4710   -2.3230 ca        1 MOL     -0.084508
     89 C31        -1.0320    6.7950   -2.4350 ca        1 MOL     -0.346465
     90 C32        -3.2790    5.6640   -2.6360 ca        1 MOL     -0.346465
     91 C33        -2.3950    6.8310   -2.6060 ca        1 MOL      0.442814
     92 O14        -2.9090    8.0900   -2.7590 oh        1 MOL     -0.529921
     93 H37        -0.8960    1.4440    0.7830 hn        1 MOL      0.090999
     94 H38         0.5590    3.7750   -0.0360 h1        1 MOL      0.021554
     95 H39        -1.5580    2.2880   -1.7170 hc        1 MOL      0.034045
     96 H40        -0.0130    2.7550   -2.5060 hc        1 MOL      0.034045
     97 H41         0.6030    5.5710   -2.0030 ha        1 MOL      0.122187
     98 H42        -3.1970    3.5600   -2.2840 ha        1 MOL      0.122187
     99 H43        -0.4370    7.6880   -2.5780 ha        1 MOL      0.181822
    100 H44        -4.3330    5.7500   -2.8190 ha        1 MOL      0.181822
    101 H45        -3.8230    8.0550   -2.4710 ho        1 MOL      0.381473
    102 N10         2.3140    2.2030   -0.9970 n         1 MOL     -0.483781
    103 C34         3.4580    1.3420   -1.0490 c3        1 MOL      0.496398
    104 C35         4.5130    1.8250   -0.0340 c         1 MOL      0.674093
    105 O15         4.7930    1.0860    0.9080 o         1 MOL     -0.521030
    106 C36         3.9610    1.1590   -2.5020 c3        1 MOL     -0.021270
    107 C37         3.0230    0.4660   -3.4820 c3        1 MOL      0.547657
    108 C38         5.3220    0.4680   -2.5540 c3        1 MOL     -0.666026
    109 C39         3.1820    0.6370   -5.0500 c3        1 MOL     -0.212607
    110 H46         2.4010    3.1830   -1.2660 hn        1 MOL      0.209771
    111 H47         3.0690    0.3620   -0.7660 h1        1 MOL     -0.187071
    112 H48         4.1220    2.1570   -2.9240 hc        1 MOL     -0.061676
    113 H49         2.0460    0.9230   -3.3420 hc        1 MOL     -0.140465
    114 H50         3.0150   -0.5950   -3.2400 hc        1 MOL     -0.140465
    115 H51         5.2030   -0.5940   -2.3080 hc        1 MOL      0.174354
    116 H52         5.7000    0.4510   -3.5830 hc        1 MOL      0.174354
    117 H53         5.9590    0.8740   -1.7720 hc        1 MOL      0.174354
    118 H54         4.1040    0.1620   -5.3960 hc        1 MOL      0.031193
    119 H55         2.3610    0.1010   -5.5370 hc        1 MOL      0.031193
    120 H56         3.2010    1.7060   -5.2400 hc        1 MOL      0.031193
    121 N11         5.0850    3.0340   -0.2990 n         1 MOL     -0.724494
    122 C40         5.9590    3.8530    0.5660 c3        1 MOL      0.209576
    123 C41         7.3450    3.2890    0.6390 c         1 MOL      0.404993
    124 O16         7.8570    3.1670    1.7660 o         1 MOL     -0.502079
    125 C42         6.0280    5.3320    0.0940 c3        1 MOL      0.197935
    126 O17         4.7730    5.9010    0.4570 oh        1 MOL     -0.584280
    127 H57         4.5930    3.4520   -1.0680 hn        1 MOL      0.326122
    128 H58         5.6110    3.8710    1.5970 h1        1 MOL      0.096753
    129 H59         6.2180    5.4090   -0.9730 h1        1 MOL      0.015552
    130 H60         6.8970    5.7810    0.5800 h1        1 MOL      0.015552
    131 H61         4.5000    6.5340   -0.2170 ho        1 MOL      0.398655
    132 N12         7.9330    3.0910   -0.5340 n         1 MOL     -0.522025
    133 C43         9.2710    2.5440   -0.7460 c3        1 MOL      0.429039
    134 C44         9.5710    1.1280   -0.1170 c         1 MOL      0.241042
    135 O18        10.7080    0.7140    0.0500 o         1 MOL     -0.491343
    136 C45        10.2880    3.6440   -0.5670 c3        1 MOL     -0.314209
    137 H62         7.3390    3.2790   -1.3270 hn        1 MOL      0.273038
    138 H63         9.3650    2.3300   -1.8120 h1        1 MOL      0.001401
    139 H64        11.2060    3.3270   -1.0710 hc        1 MOL      0.088642
    140 H65         9.9410    4.5650   -1.0310 hc        1 MOL      0.088642
    141 H66        10.4790    3.7980    0.4880 hc        1 MOL      0.088642
    142 N13         8.5580    0.4040    0.2200 n         1 MOL     -0.209221
    143 C46         8.5930   -0.9110    0.8900 c3        1 MOL      0.403515
    144 C47         8.1060   -2.1000    0.0450 c         1 MOL      0.322926
    145 O19         7.9760   -1.9700   -1.2000 o         1 MOL     -0.542788
    146 C48         7.7550   -0.6710    2.1650 c3        1 MOL     -0.437236
    147 H67         7.6610    0.7490   -0.1130 hn        1 MOL      0.177741
    148 H68         9.6390   -1.0850    1.1570 h1        1 MOL      0.011025
    149 H69         8.2930    0.1660    2.6150 hc        1 MOL      0.115948
    150 H70         6.7610   -0.2690    1.9570 hc        1 MOL      0.115948
    151 H71         7.8410   -1.5250    2.8430 hc        1 MOL      0.115948
    152 N14         7.6680   -3.1890    0.6950 n         1 MOL     -0.406949
    153 C49         7.1570   -4.4570    0.2960 c3        1 MOL     -0.109882
    154 C50         7.7370   -5.2430   -0.9440 c         1 MOL      0.499450
    155 O20         7.9520   -6.4590   -0.8910 o         1 MOL     -0.531494
    156 C51         5.6160   -4.3650    0.2680 c3        1 MOL      0.173906
    157 C52         4.8840   -3.4510   -0.7390 c3        1 MOL     -0.407370
    158 C53         3.4020   -3.1280   -0.4640 c         1 MOL      0.882078
    159 O21         2.6660   -3.8500    0.2690 o         1 MOL     -0.767715
    160 O22         2.8850   -2.1280   -0.9740 o         1 MOL     -0.767715
    161 H72         7.6660   -3.0870    1.7070 hn        1 MOL      0.310028
    162 H73         7.3750   -5.1150    1.1290 h1        1 MOL      0.087867
    163 H74         5.3240   -4.0970    1.2890 hc        1 MOL     -0.002919
    164 H75         5.2640   -5.3940    0.2550 hc        1 MOL     -0.002919
    165 H76         4.7820   -4.0010   -1.6850 hc        1 MOL      0.104647
    166 H77         5.3530   -2.4710   -0.7610 hc        1 MOL      0.104647
    167 N15         8.0350   -4.5500   -2.0740 n         1 MOL     -0.228847
    168 C54         8.2510   -5.1020   -3.4370 c3        1 MOL     -0.255988
    169 H78         7.4590   -5.8130   -3.6710 h1        1 MOL      0.107201
    170 H79         8.2370   -4.2900   -4.1640 h1        1 MOL      0.107201
    171 H80         9.2160   -5.6080   -3.4760 h1        1 MOL      0.107201
    172 H81         7.9250   -3.5390   -2.0470 hn        1 MOL      0.274081
    173 Ca1         0.3600   -2.0330   -0.1990 Ca        1 MOL      1.684170
    174 O23        -0.4590   -3.8890    1.7020 oh        1 MOL     -0.786055
    175 H82        -0.2280   -4.0690    2.6170 ho        1 MOL      0.393979
    176 H83        -0.9320   -4.6720    1.4230 ho        1 MOL      0.393979
    177 O24        -0.1340   -4.4290   -1.4190 oh        1 MOL     -0.786055
    178 H84         0.4270   -4.6050   -2.1720 ho        1 MOL      0.393979
    179 H85        -1.0150   -4.6790   -1.7100 ho        1 MOL      0.393979
    180 O25        -0.1120   -1.3970   -2.7900 oh        1 MOL     -0.786055
    181 H86        -1.0520   -1.4240   -2.9910 ho        1 MOL      0.393979
    182 H87         0.3170   -1.3550   -3.6500 ho        1 MOL      0.393979
@<TRIPOS>BOND
     1    1    2 1   
     2    1    4 1   
     3    1    5 1   
     4    1    6 1   
     5    2    3 2   
     6    2    7 1   
     7    7    8 1   
     8    7   15 1   
     9    8    9 1   
    10    8   11 1   
    11    8   16 1   
    12    9   10 2   
    13    9   19 1   
    14   11   12 1   
    15   11   17 1   
    16   11   18 1   
    17   12   13 1   
    18   12   14 1   
    19   19   20 1   
    20   19   28 1   
    21   20   21 1   
    22   20   23 1   
    23   20   29 1   
    24   21   22 2   
    25   21   41 1   
    26   23   24 1   
    27   23   30 1   
    28   23   31 1   
    29   24   25 1   
    30   24   32 1   
    31   24   33 1   
    32   25   26 1   
    33   25   34 1   
    34   25   35 1   
    35   26   27 1   
    36   26   36 1   
    37   26   37 1   
    38   27   38 1   
    39   27   39 1   
    40   27   40 1   
    41   41   42 1   
    42   41   49 1   
    43   42   43 1   
    44   42   45 1   
    45   42   50 1   
    46   43   44 2   
    47   43   53 1   
    48   45   46 1   
    49   45   51 1   
    50   45   52 1   
    51   46   47 1   
    52   46   48 1   
    53   53   54 1   
    54   53   57 1   
    55   54   55 1   
    56   54   58 1   
    57   54   59 1   
    58   55   56 2   
    59   55   60 1   
    60   60   61 1   
    61   60   68 1   
    62   61   62 1   
    63   61   64 1   
    64   61   69 1   
    65   62   63 2   
    66   62   74 1   
    67   64   65 1   
    68   64   70 1   
    69   64   71 1   
    70   65   66 1   
    71   65   67 2   
    72   66   72 1   
    73   66   73 1   
    74   74   75 1   
    75   74   78 1   
    76   75   76 1   
    77   75   79 1   
    78   75   80 1   
    79   76   77 2   
    80   76   81 1   
    81   81   82 1   
    82   81   93 1   
    83   82   83 1   
    84   82   85 1   
    85   82   94 1   
    86   83   84 2   
    87   83  102 1   
    88   85   86 1   
    89   85   95 1   
    90   85   96 1   
    91   86   87 ar  
    92   86   88 ar  
    93   87   89 ar  
    94   87   97 1   
    95   88   90 ar  
    96   88   98 1   
    97   89   91 ar  
    98   89   99 1   
    99   90   91 ar  
   100   90  100 1   
   101   91   92 1   
   102   92  101 1   
   103  102  103 1   
   104  102  110 1   
   105  103  104 1   
   106  103  106 1   
   107  103  111 1   
   108  104  105 2   
   109  104  121 1   
   110  106  107 1   
   111  106  108 1   
   112  106  112 1   
   113  107  109 1   
   114  107  113 1   
   115  107  114 1   
   116  108  115 1   
   117  108  116 1   
   118  108  117 1   
   119  109  118 1   
   120  109  119 1   
   121  109  120 1   
   122  121  122 1   
   123  121  127 1   
   124  122  123 1   
   125  122  125 1   
   126  122  128 1   
   127  123  124 2   
   128  123  132 1   
   129  125  126 1   
   130  125  129 1   
   131  125  130 1   
   132  126  131 1   
   133  132  133 1   
   134  132  137 1   
   135  133  134 1   
   136  133  136 1   
   137  133  138 1   
   138  134  135 2   
   139  134  142 1   
   140  136  139 1   
   141  136  140 1   
   142  136  141 1   
   143  142  143 1   
   144  142  147 1   
   145  143  144 1   
   146  143  146 1   
   147  143  148 1   
   148  144  145 2   
   149  144  152 1   
   150  146  149 1   
   151  146  150 1   
   152  146  151 1   
   153  152  153 1   
   154  152  161 1   
   155  153  154 1   
   156  153  156 1   
   157  153  162 1   
   158  154  155 2   
   159  154  167 1   
   160  156  157 1   
   161  156  163 1   
   162  156  164 1   
   163  157  158 1   
   164  157  165 1   
   165  157  166 1   
   166  158  159 1   
   167  158  160 1   
   168  167  168 1   
   169  167  172 1   
   170  168  169 1   
   171  168  170 1   
   172  168  171 1   
   173  174  175 1   
   174  174  176 1   
   175  177  178 1   
   176  177  179 1   
   177  180  181 1   
   178  180  182 1   
@<TRIPOS>SUBSTRUCTURE
     1 MOL         1 TEMP              0 ****  ****    0 ROOT
