@<TRIPOS>MOLECULE
MOL
  195   189     1     0     0
SMALL
resp


@<TRIPOS>ATOM
      1 C1          6.6920   -3.2360   -0.3730 c3        1 MOL     -0.222300
      2 C2          5.3200   -2.5370   -0.4980 c         1 MOL      0.663758
      3 O1          5.1170   -1.5620   -1.2260 o         1 MOL     -0.605251
      4 H1          6.5570   -4.3150   -0.4500 hc        1 MOL      0.055459
      5 H2          7.3480   -2.8960   -1.1740 hc        1 MOL      0.055459
      6 H3          7.1380   -2.9930    0.5910 hc        1 MOL      0.055459
      7 N1          4.2230   -2.9720    0.0790 n         1 MOL     -0.465710
      8 C3          3.9220   -4.2270    0.8380 c3        1 MOL     -0.028992
      9 C4          3.3940   -5.3190   -0.0940 c         1 MOL      0.343325
     10 O2          3.1410   -6.4670    0.3020 o         1 MOL     -0.533581
     11 C5          2.8840   -3.9350    1.9410 c3        1 MOL     -0.125746
     12 C6          3.1190   -2.6770    2.7090 c         1 MOL      0.834250
     13 O3          2.5150   -1.6060    2.4210 o         1 MOL     -0.806419
     14 O4          3.8600   -2.6550    3.6750 o         1 MOL     -0.806419
     15 H4          3.4550   -2.3750   -0.1740 hn        1 MOL      0.253292
     16 H5          4.8100   -4.6240    1.3390 h1        1 MOL      0.108267
     17 H6          2.9510   -4.7080    2.7100 hc        1 MOL      0.053315
     18 H7          1.9190   -3.8330    1.4390 hc        1 MOL      0.053315
     19 N2          3.0800   -5.0050   -1.3620 n         1 MOL      0.057000
     20 C7          2.6850   -5.8940   -2.4660 c3        1 MOL     -0.628522
     21 C8          1.3120   -6.5210   -2.2390 c         1 MOL      0.610836
     22 O5          1.0770   -7.5560   -2.8160 o         1 MOL     -0.547599
     23 C9          2.7210   -5.2130   -3.8330 c3        1 MOL      0.288328
     24 C10         1.8910   -3.8720   -3.8120 c3        1 MOL      0.067838
     25 C11         4.2440   -4.8770   -4.0180 c3        1 MOL     -0.335126
     26 C12         1.6770   -3.2940   -5.2010 c3        1 MOL     -0.173285
     27 H8          3.2230   -4.0550   -1.6620 hn        1 MOL      0.165596
     28 H9          3.3970   -6.7160   -2.4590 h1        1 MOL      0.201152
     29 H10         2.3070   -5.7930   -4.6650 hc        1 MOL      0.022134
     30 H11         2.4250   -3.1520   -3.2020 hc        1 MOL      0.016162
     31 H12         0.8940   -3.9880   -3.3830 hc        1 MOL      0.016162
     32 H13         4.8450   -5.7820   -3.9950 hc        1 MOL      0.065696
     33 H14         4.3490   -4.4260   -5.0020 hc        1 MOL      0.065696
     34 H15         4.6080   -4.2240   -3.2170 hc        1 MOL      0.065696
     35 H16         1.0200   -3.9670   -5.7520 hc        1 MOL      0.027534
     36 H17         1.1520   -2.3520   -5.0350 hc        1 MOL      0.027534
     37 H18         2.5590   -3.3400   -5.8240 hc        1 MOL      0.027534
     38 N3          0.4650   -5.8690   -1.4170 n         1 MOL     -0.233181
     39 C13        -0.9660   -6.1600   -1.3810 c3        1 MOL      0.037449
     40 C14        -1.6600   -5.6270   -0.0400 c         1 MOL      0.338886
     41 O6         -1.0950   -4.7500    0.5890 o         1 MOL     -0.501516
     42 C15        -1.6600   -5.4840   -2.5960 c3        1 MOL     -0.252053
     43 C16        -2.9950   -6.0990   -2.9190 c         1 MOL      0.695946
     44 O7         -4.0790   -5.4760   -3.1070 o         1 MOL     -0.715948
     45 O8         -3.0360   -7.3480   -3.0420 o         1 MOL     -0.715948
     46 H19         0.8150   -5.0710   -0.9030 hn        1 MOL      0.217260
     47 H20        -1.1760   -7.2330   -1.4810 h1        1 MOL      0.007741
     48 H21        -1.0120   -5.7510   -3.4290 hc        1 MOL      0.058001
     49 H22        -1.6710   -4.3980   -2.5280 hc        1 MOL      0.058001
     50 N4         -2.8280   -6.1610    0.3260 n         1 MOL     -0.190436
     51 C17        -3.7300   -5.6550    1.3600 c3        1 MOL     -0.461683
     52 C18        -4.2620   -4.2060    1.0990 c         1 MOL      0.865673
     53 O9         -4.0290   -3.5690    0.0660 o         1 MOL     -0.558753
     54 H23        -3.1500   -6.9660   -0.2010 hn        1 MOL      0.265676
     55 H24        -3.1400   -5.7150    2.2770 h1        1 MOL      0.169952
     56 H25        -4.5970   -6.3070    1.2770 h1        1 MOL      0.169952
     57 N5         -5.0410   -3.7180    2.0620 n         1 MOL     -0.692844
     58 C19        -5.8440   -2.4850    1.8210 c3        1 MOL      0.178880
     59 C20        -6.8840   -2.5650    0.7400 c         1 MOL      0.682899
     60 O10        -7.4430   -3.6250    0.4570 o         1 MOL     -0.567819
     61 C21        -6.3770   -2.0060    3.1470 c3        1 MOL     -0.098143
     62 C22        -5.6100   -2.4060    4.4120 c         1 MOL      0.682492
     63 O11        -4.8210   -1.5220    4.8880 o         1 MOL     -0.713499
     64 O12        -5.8260   -3.5080    4.9890 o         1 MOL     -0.713499
     65 H26        -5.1500   -4.1520    2.9660 hn        1 MOL      0.299928
     66 H27        -5.1160   -1.6880    1.6630 h1        1 MOL      0.005206
     67 H28        -7.3780   -2.4140    3.3080 hc        1 MOL     -0.025535
     68 H29        -6.4000   -0.9330    2.9800 hc        1 MOL     -0.025535
     69 N6         -7.2240   -1.4320    0.1250 n         1 MOL     -0.770034
     70 C23        -6.8380   -0.0930    0.4220 c3        1 MOL      0.368409
     71 C24        -7.1880    0.9530   -0.6680 c         1 MOL      0.465678
     72 O13        -7.4500    0.5180   -1.8040 o         1 MOL     -0.524679
     73 H30        -7.8030   -1.5380   -0.7050 hn        1 MOL      0.361681
     74 H31        -5.7850    0.0120    0.7000 h1        1 MOL      0.040508
     75 H32        -7.4460    0.2520    1.2570 h1        1 MOL      0.040508
     76 N7         -7.2010    2.2290   -0.3410 n         1 MOL     -0.533013
     77 C25        -6.7880    2.8680    0.9230 c3        1 MOL      0.114564
     78 C26        -5.3410    2.4800    1.4160 c         1 MOL      0.387824
     79 O14        -5.1240    2.2580    2.5820 o         1 MOL     -0.499455
     80 C27        -7.8940    2.9080    1.9110 c3        1 MOL     -0.002825
     81 C28        -9.2930    3.1660    1.3790 c3        1 MOL     -0.362669
     82 C29        -9.3720    4.3140    0.3250 c         1 MOL      0.679587
     83 N8         -9.2770    5.5820    0.7700 n         1 MOL     -0.846383
     84 O15        -9.4810    4.0390   -0.8620 o         1 MOL     -0.545318
     85 H33        -7.2780    2.8790   -1.1080 hn        1 MOL      0.324872
     86 H34        -6.6330    3.9090    0.6590 h1        1 MOL      0.047166
     87 H35        -7.6290    3.7130    2.5950 hc        1 MOL      0.009341
     88 H36        -7.9250    1.9330    2.4090 hc        1 MOL      0.009341
     89 H37        -9.8630    3.4910    2.2530 hc        1 MOL      0.118728
     90 H38        -9.6580    2.2070    1.0260 hc        1 MOL      0.118728
     91 H39        -9.0610    5.6610    1.7540 hn        1 MOL      0.386894
     92 H40        -9.2280    6.3190    0.0890 hn        1 MOL      0.386894
     93 N9         -4.4020    2.2910    0.4190 n         1 MOL     -0.113403
     94 C30        -2.9950    1.9030    0.4620 c3        1 MOL     -0.179530
     95 C31        -2.6590    1.1320   -0.8120 c         1 MOL      0.311664
     96 O16        -3.3600    1.2390   -1.8250 o         1 MOL     -0.495492
     97 C32        -2.0610    3.1090    0.8250 c3        1 MOL     -0.004055
     98 C33        -2.4400    3.8110    2.0930 c3        1 MOL     -0.196474
     99 C34        -1.8540    4.1230   -0.2640 c3        1 MOL     -0.196474
    100 H41        -4.7200    2.6600   -0.4630 hn        1 MOL      0.157262
    101 H42        -2.9000    1.2180    1.3100 h1        1 MOL      0.184409
    102 H43        -1.0160    2.7950    0.9230 hc        1 MOL      0.072757
    103 H44        -2.3840    3.1110    2.9330 hc        1 MOL      0.071428
    104 H45        -1.6960    4.5750    2.3030 hc        1 MOL      0.071428
    105 H46        -3.3890    4.2400    1.7860 hc        1 MOL      0.071428
    106 H47        -1.1480    4.8800    0.0950 hc        1 MOL      0.071428
    107 H48        -1.4280    3.6830   -1.1620 hc        1 MOL      0.071428
    108 H49        -2.7910    4.6160   -0.5210 hc        1 MOL      0.071428
    109 N10        -1.7240    0.2240   -0.8390 n         1 MOL     -0.116201
    110 C35        -1.1020   -0.4130   -2.0260 c3        1 MOL      0.017221
    111 C36        -0.0900    0.4300   -2.7510 c         1 MOL      0.356258
    112 O17         0.6070   -0.0180   -3.6490 o         1 MOL     -0.485083
    113 C37        -0.6080   -1.7980   -1.6630 c3        1 MOL     -0.158581
    114 C38         0.6160   -1.7180   -0.6860 c         1 MOL      0.385563
    115 N11         0.3270   -1.5780    0.6160 n         1 MOL     -0.486969
    116 O18         1.7340   -1.8070   -1.0850 o         1 MOL     -0.418410
    117 H50        -1.3060    0.0320    0.0630 hn        1 MOL      0.104538
    118 H51        -1.9460   -0.6100   -2.6890 h1        1 MOL      0.134532
    119 H52        -0.3680   -2.3960   -2.5430 hc        1 MOL      0.097487
    120 H53        -1.4880   -2.3240   -1.2640 hc        1 MOL      0.097487
    121 H54        -0.6230   -1.5560    0.9530 hn        1 MOL      0.289406
    122 H55         1.0970   -1.6580    1.2660 hn        1 MOL      0.289406
    123 N12         0.0130    1.7420   -2.3820 n         1 MOL      0.025964
    124 C39         1.1770    2.5800   -2.7810 c3        1 MOL     -0.010678
    125 C40         1.8090    3.2880   -1.6100 c         1 MOL      0.474843
    126 O19         1.2110    3.2670   -0.4930 o         1 MOL     -0.529315
    127 C41         0.7780    3.5550   -3.9450 c3        1 MOL      0.211425
    128 C42        -0.3890    4.5070   -3.6350 ca        1 MOL     -0.058942
    129 C43        -0.1720    5.8210   -3.1570 ca        1 MOL     -0.015364
    130 C44        -1.6390    4.0660   -4.0020 ca        1 MOL     -0.015364
    131 C45        -1.2570    6.6550   -2.8480 ca        1 MOL     -0.381865
    132 C46        -2.7340    4.9510   -3.7980 ca        1 MOL     -0.381865
    133 C47        -2.5260    6.2280   -3.2240 ca        1 MOL      0.370354
    134 O20        -3.5690    7.0880   -2.9390 oh        1 MOL     -0.495647
    135 H56        -0.5930    2.1070   -1.6580 hn        1 MOL     -0.094650
    136 H57         1.9840    1.9740   -3.1790 h1        1 MOL      0.080325
    137 H58         0.4790    2.9410   -4.7870 hc        1 MOL     -0.074214
    138 H59         1.6690    4.0940   -4.2450 hc        1 MOL     -0.074214
    139 H60         0.8180    6.1870   -2.9570 ha        1 MOL      0.115077
    140 H61        -1.8750    3.0830   -4.3790 ha        1 MOL      0.115077
    141 H62        -1.1470    7.6380   -2.4250 ha        1 MOL      0.185858
    142 H63        -3.7730    4.6850   -3.9450 ha        1 MOL      0.185858
    143 H64        -4.4060    6.8660   -3.3440 ho        1 MOL      0.342370
    144 N13         3.0460    3.8150   -1.7500 n         1 MOL     -0.386538
    145 C48         3.7690    4.4830   -0.6860 c3        1 MOL     -0.171003
    146 C49         5.2610    4.0310   -0.6490 c         1 MOL      0.572072
    147 O21         6.1330    4.7640   -1.0060 o         1 MOL     -0.503835
    148 C50         3.4620    5.9820   -0.7250 c3        1 MOL      0.194451
    149 C51         3.8090    6.6560    0.6100 c3        1 MOL     -0.331608
    150 C52         3.5410    8.1480    0.4790 c         1 MOL      0.677059
    151 O22         4.4190    8.9140    0.9470 o         1 MOL     -0.728162
    152 O23         2.5250    8.5820   -0.1670 o         1 MOL     -0.728162
    153 H65         3.5020    3.6400   -2.6310 hn        1 MOL      0.249213
    154 H66         3.3160    4.0380    0.1920 h1        1 MOL      0.117790
    155 H67         2.4000    6.1140   -0.9000 hc        1 MOL      0.008727
    156 H68         3.8960    6.4690   -1.5880 hc        1 MOL      0.008727
    157 H69         4.8250    6.4290    0.9440 hc        1 MOL      0.067769
    158 H70         3.0580    6.2590    1.2970 hc        1 MOL      0.067769
    159 N14         5.4700    2.7280   -0.3140 n         1 MOL     -0.397033
    160 C53         6.7790    2.1300   -0.6010 c3        1 MOL     -0.087520
    161 C54         6.8150    1.5960   -2.0560 c         1 MOL      0.411641
    162 O24         7.8550    1.4490   -2.6320 o         1 MOL     -0.532354
    163 C55         7.0870    1.0650    0.3970 c3        1 MOL     -0.046971
    164 C56         7.2020    1.5880    1.8470 c3        1 MOL      0.044240
    165 C57         5.9320    1.2450    2.6380 c         1 MOL      0.589992
    166 O25         6.0180    0.1710    3.3300 o         1 MOL     -0.747405
    167 O26         5.0060    2.0760    2.8590 o         1 MOL     -0.747405
    168 H71         4.6140    2.2130   -0.1450 hn        1 MOL      0.297880
    169 H72         7.5740    2.8640   -0.4680 h1        1 MOL      0.120027
    170 H73         8.0170    0.5400    0.1760 hc        1 MOL      0.034055
    171 H74         6.3530    0.2580    0.3890 hc        1 MOL      0.034055
    172 H75         7.4290    2.6420    1.9720 hc        1 MOL     -0.000219
    173 H76         7.9770    1.0800    2.4140 hc        1 MOL     -0.000219
    174 N15         5.6880    1.2150   -2.6940 n         1 MOL     -0.044453
    175 C58         5.5130    0.8590   -4.0420 c3        1 MOL     -0.279496
    176 H77         5.9370    1.6340   -4.6800 h1        1 MOL      0.097303
    177 H78         6.0160   -0.0890   -4.2360 h1        1 MOL      0.097303
    178 H79         4.4490    0.7560   -4.2550 h1        1 MOL      0.097303
    179 H80         4.8540    1.3820   -2.1440 hn        1 MOL      0.151292
    180 Ca1         3.6920   -0.0210    4.3810 Ca        1 MOL      1.756301
    181 O27         5.1700    1.4630    6.2580 oh        1 MOL     -0.779788
    182 O28         1.9960    1.8160    5.9940 oh        1 MOL     -0.779788
    183 H81         4.9840    2.1920    6.8460 ho        1 MOL      0.391969
    184 H82         1.3640    1.8120    6.7120 ho        1 MOL      0.391969
    185 H83         6.1160    1.5020    6.1180 ho        1 MOL      0.391969
    186 H84         1.9020    2.6890    5.6020 ho        1 MOL      0.391969
    187 O29         1.8030    1.3820    3.0650 oh        1 MOL     -0.779788
    188 H85         0.9280    1.0450    2.8860 ho        1 MOL      0.391969
    189 H86         1.9480    2.0410    2.3930 ho        1 MOL      0.391969
    190 O30         2.9460   -1.4230    6.3700 oh        1 MOL     -0.779788
    191 H87         2.2550   -2.0830    6.3040 ho        1 MOL      0.391969
    192 H88         3.6130   -1.8220    6.9330 ho        1 MOL      0.391969
    193 O31         5.9980   -1.5100    5.6910 oh        1 MOL     -0.779788
    194 H89         6.5950   -1.8420    6.3610 ho        1 MOL      0.391969
    195 H90         6.5650   -1.3640    4.9300 ho        1 MOL      0.391969
@<TRIPOS>BOND
     1    1    2 1   
     2    1    4 1   
     3    1    5 1   
     4    1    6 1   
     5    2    3 2   
     6    2    7 1   
     7    7    8 1   
     8    7   15 1   
     9    8    9 1   
    10    8   11 1   
    11    8   16 1   
    12    9   10 2   
    13    9   19 1   
    14   11   12 1   
    15   11   17 1   
    16   11   18 1   
    17   12   13 1   
    18   12   14 1   
    19   19   20 1   
    20   19   27 1   
    21   20   21 1   
    22   20   23 1   
    23   20   28 1   
    24   21   22 2   
    25   21   38 1   
    26   23   24 1   
    27   23   25 1   
    28   23   29 1   
    29   24   26 1   
    30   24   30 1   
    31   24   31 1   
    32   25   32 1   
    33   25   33 1   
    34   25   34 1   
    35   26   35 1   
    36   26   36 1   
    37   26   37 1   
    38   38   39 1   
    39   38   46 1   
    40   39   40 1   
    41   39   42 1   
    42   39   47 1   
    43   40   41 2   
    44   40   50 1   
    45   42   43 1   
    46   42   48 1   
    47   42   49 1   
    48   43   44 1   
    49   43   45 1   
    50   50   51 1   
    51   50   54 1   
    52   51   52 1   
    53   51   55 1   
    54   51   56 1   
    55   52   53 2   
    56   52   57 1   
    57   57   58 1   
    58   57   65 1   
    59   58   59 1   
    60   58   61 1   
    61   58   66 1   
    62   59   60 2   
    63   59   69 1   
    64   61   62 1   
    65   61   67 1   
    66   61   68 1   
    67   62   63 1   
    68   62   64 1   
    69   69   70 1   
    70   69   73 1   
    71   70   71 1   
    72   70   74 1   
    73   70   75 1   
    74   71   72 2   
    75   71   76 1   
    76   76   77 1   
    77   76   85 1   
    78   77   78 1   
    79   77   80 1   
    80   77   86 1   
    81   78   79 2   
    82   78   93 1   
    83   80   81 1   
    84   80   87 1   
    85   80   88 1   
    86   81   82 1   
    87   81   89 1   
    88   81   90 1   
    89   82   83 1   
    90   82   84 2   
    91   83   91 1   
    92   83   92 1   
    93   93   94 1   
    94   93  100 1   
    95   94   95 1   
    96   94   97 1   
    97   94  101 1   
    98   95   96 2   
    99   95  109 1   
   100   97   98 1   
   101   97   99 1   
   102   97  102 1   
   103   98  103 1   
   104   98  104 1   
   105   98  105 1   
   106   99  106 1   
   107   99  107 1   
   108   99  108 1   
   109  109  110 1   
   110  109  117 1   
   111  110  111 1   
   112  110  113 1   
   113  110  118 1   
   114  111  112 2   
   115  111  123 1   
   116  113  114 1   
   117  113  119 1   
   118  113  120 1   
   119  114  115 1   
   120  114  116 2   
   121  115  121 1   
   122  115  122 1   
   123  123  124 1   
   124  123  135 1   
   125  124  125 1   
   126  124  127 1   
   127  124  136 1   
   128  125  126 2   
   129  125  144 1   
   130  127  128 1   
   131  127  137 1   
   132  127  138 1   
   133  128  129 ar  
   134  128  130 ar  
   135  129  131 ar  
   136  129  139 1   
   137  130  132 ar  
   138  130  140 1   
   139  131  133 ar  
   140  131  141 1   
   141  132  133 ar  
   142  132  142 1   
   143  133  134 1   
   144  134  143 1   
   145  144  145 1   
   146  144  153 1   
   147  145  146 1   
   148  145  148 1   
   149  145  154 1   
   150  146  147 2   
   151  146  159 1   
   152  148  149 1   
   153  148  155 1   
   154  148  156 1   
   155  149  150 1   
   156  149  157 1   
   157  149  158 1   
   158  150  151 1   
   159  150  152 1   
   160  159  160 1   
   161  159  168 1   
   162  160  161 1   
   163  160  163 1   
   164  160  169 1   
   165  161  162 2   
   166  161  174 1   
   167  163  164 1   
   168  163  170 1   
   169  163  171 1   
   170  164  165 1   
   171  164  172 1   
   172  164  173 1   
   173  165  166 1   
   174  165  167 1   
   175  174  175 1   
   176  174  179 1   
   177  175  176 1   
   178  175  177 1   
   179  175  178 1   
   180  181  183 1   
   181  181  185 1   
   182  182  184 1   
   183  182  186 1   
   184  187  188 1   
   185  187  189 1   
   186  190  191 1   
   187  190  192 1   
   188  193  194 1   
   189  193  195 1   
@<TRIPOS>SUBSTRUCTURE
     1 MOL         1 TEMP              0 ****  ****    0 ROOT
