@<TRIPOS>MOLECULE
MOL
  191   184     1     0     0
SMALL
resp


@<TRIPOS>ATOM
      1 C1          6.5020   -1.2050    4.9100 c3        1 MOL     -0.310007
      2 C2          6.5400   -0.4510    3.4770 c         1 MOL      0.612174
      3 O1          5.5080   -0.4170    2.7860 o         1 MOL     -0.439708
      4 H1          6.4710   -0.4640    5.7080 hc        1 MOL      0.083529
      5 H2          5.6150   -1.8360    4.9660 hc        1 MOL      0.083529
      6 H3          7.3950   -1.8220    5.0200 hc        1 MOL      0.083529
      7 N1          7.7210    0.2500    3.2090 n         1 MOL     -0.512962
      8 C3          8.0860    0.8950    1.8820 c3        1 MOL     -0.065904
      9 C4          8.0030    0.0230    0.5870 c         1 MOL      0.478527
     10 O2          8.2410    0.5410   -0.5110 o         1 MOL     -0.520611
     11 C5          7.5320    2.2780    1.6080 c3        1 MOL     -0.187975
     12 C6          7.3860    3.0180    3.0100 c         1 MOL      0.687128
     13 O3          6.2290    3.1500    3.5560 o         1 MOL     -0.644190
     14 O4          8.4060    3.5520    3.4850 o         1 MOL     -0.644190
     15 H4          8.4780    0.1930    3.8650 hn        1 MOL      0.316671
     16 H5          9.1600    1.0950    1.8890 h1        1 MOL      0.094477
     17 H6          6.5660    2.0720    1.1630 hc        1 MOL      0.070720
     18 H7          8.1480    2.8090    0.8940 hc        1 MOL      0.070720
     19 N2          7.8350   -1.3250    0.6880 n         1 MOL     -0.228766
     20 C7          7.5550   -2.2350   -0.4510 c3        1 MOL      0.173801
     21 C8          6.1900   -2.8450   -0.3430 c         1 MOL      0.451229
     22 O5          5.9880   -3.9610   -0.9210 o         1 MOL     -0.606586
     23 C9          8.6610   -3.2830   -0.6250 c3        1 MOL     -0.231760
     24 C10        10.1080   -2.6090   -0.7490 c3        1 MOL     -0.007623
     25 C11        10.4660   -1.8280   -2.0100 c3        1 MOL      0.185778
     26 C12        11.8020   -1.1030   -1.8590 c3        1 MOL     -0.058029
     27 N3         12.0440   -0.2250   -3.0620 n4        1 MOL     -0.188325
     28 H8          7.9120   -1.7340    1.6050 hn        1 MOL      0.163052
     29 H9          7.4980   -1.6510   -1.3860 h1        1 MOL      0.033108
     30 H10         8.5890   -3.7500   -1.6020 hc        1 MOL      0.092721
     31 H11         8.5910   -4.0650    0.1270 hc        1 MOL      0.092721
     32 H12        10.8390   -3.4180   -0.7420 hc        1 MOL     -0.011835
     33 H13        10.2700   -1.8840    0.0430 hc        1 MOL     -0.011835
     34 H14         9.7120   -1.0620   -2.1770 hc        1 MOL     -0.025687
     35 H15        10.4740   -2.4670   -2.8890 hc        1 MOL     -0.025687
     36 H16        12.5890   -1.8490   -1.7410 hx        1 MOL      0.085162
     37 H17        11.7000   -0.5360   -0.9360 hx        1 MOL      0.085162
     38 H18        12.2320   -0.7940   -3.8860 hn        1 MOL      0.248437
     39 H19        11.3210    0.4360   -3.2850 hn        1 MOL      0.248437
     40 H20        12.8980    0.3100   -2.9890 hn        1 MOL      0.248437
     41 N4          5.2740   -2.1990    0.3660 n         1 MOL     -0.305490
     42 C13         3.8790   -2.4510    0.0330 c3        1 MOL     -0.069090
     43 C14         3.6510   -1.6550   -1.2880 c         1 MOL      0.630538
     44 O6          3.5690   -0.4450   -1.2730 o         1 MOL     -0.502631
     45 C15         2.9960   -1.9910    1.2480 c3        1 MOL     -0.632234
     46 C16         1.4520   -2.0330    1.0010 c         1 MOL      0.861269
     47 O7          0.6790   -1.4740    1.8000 o         1 MOL     -0.677813
     48 O8          1.0200   -2.7300    0.0850 o         1 MOL     -0.677813
     49 H21         5.5310   -1.4270    0.9570 hn        1 MOL      0.195712
     50 H22         3.7990   -3.5240   -0.1070 h1        1 MOL      0.128571
     51 H23         3.2770   -0.9540    1.4390 hc        1 MOL      0.211988
     52 H24         3.2570   -2.6280    2.1020 hc        1 MOL      0.211988
     53 N5          3.2530   -2.3840   -2.3730 n         1 MOL     -0.477805
     54 C17         2.9430   -1.8230   -3.7010 c3        1 MOL     -0.084340
     55 C18         1.7380   -0.8800   -3.7030 c         1 MOL      0.379632
     56 O9          1.6130   -0.0020   -4.5820 o         1 MOL     -0.552260
     57 H25         3.1300   -3.3790   -2.2970 hn        1 MOL      0.305042
     58 H26         2.7040   -2.6000   -4.4220 h1        1 MOL      0.097635
     59 H27         3.7780   -1.2560   -4.1000 h1        1 MOL      0.097635
     60 N6          0.8750   -0.9610   -2.7360 n         1 MOL     -0.078815
     61 C19        -0.3480   -0.1220   -2.6860 c3        1 MOL     -0.129830
     62 C20        -0.1130    1.3880   -2.4240 c         1 MOL      0.681432
     63 O10        -1.0730    2.1580   -2.4940 o         1 MOL     -0.571683
     64 C21        -1.3840   -0.7130   -1.7270 c3        1 MOL     -0.257434
     65 C22        -1.8860   -2.0070   -2.2420 c         1 MOL      0.759978
     66 N7         -2.6390   -2.0610   -3.3020 n         1 MOL     -0.826660
     67 O11        -1.7200   -3.0170   -1.5440 o         1 MOL     -0.671212
     68 H28         1.0330   -1.6740   -2.0380 hn        1 MOL      0.082784
     69 H29        -0.8180   -0.1740   -3.6770 h1        1 MOL      0.048636
     70 H30        -2.1750    0.0370   -1.7170 hc        1 MOL      0.137675
     71 H31        -1.0020   -0.7350   -0.7130 hc        1 MOL      0.137675
     72 H32        -2.6740   -1.2400   -3.8880 hn        1 MOL      0.378369
     73 H33        -2.8630   -2.9490   -3.7220 hn        1 MOL      0.378369
     74 N8          1.1320    1.7900   -2.1410 n         1 MOL     -0.498721
     75 C23         1.5280    3.1850   -1.8930 c3        1 MOL     -0.095575
     76 C24         0.5910    3.9070   -0.8750 c         1 MOL      0.734451
     77 O12         0.4350    3.4460    0.3000 o         1 MOL     -0.561212
     78 H34         1.8850    1.1350   -2.2750 hn        1 MOL      0.384239
     79 H35         1.6340    3.8640   -2.7320 h1        1 MOL      0.092282
     80 H36         2.4980    3.1010   -1.4030 h1        1 MOL      0.092282
     81 N9         -0.0240    5.0360   -1.2480 n         1 MOL     -0.664797
     82 C25        -0.9990    5.8600   -0.4480 c3        1 MOL      0.270123
     83 C26        -2.2760    5.1510   -0.1240 c         1 MOL      0.554090
     84 O13        -3.3780    5.6070   -0.3610 o         1 MOL     -0.567072
     85 C27        -0.4500    6.4530    0.8800 c3        1 MOL     -0.488993
     86 C28         0.9320    7.0350    0.7410 ca        1 MOL      0.121613
     87 C29         2.0420    6.3290    1.0340 ca        1 MOL     -0.105868
     88 C30         1.0810    8.2930    0.2010 ca        1 MOL     -0.105868
     89 C31         3.3450    6.8090    0.7930 ca        1 MOL     -0.362682
     90 C32         2.3130    8.8810   -0.0540 ca        1 MOL     -0.362682
     91 C33         3.4930    8.0900    0.2290 ca        1 MOL      0.405904
     92 O14         4.7070    8.6390   -0.0380 oh        1 MOL     -0.439515
     93 H37        -0.0350    5.1630   -2.2580 hn        1 MOL      0.336491
     94 H38        -1.3000    6.7660   -0.9610 h1        1 MOL      0.038449
     95 H39        -0.3660    5.7530    1.7030 hc        1 MOL      0.177131
     96 H40        -1.1610    7.2250    1.1760 hc        1 MOL      0.177131
     97 H41         1.9200    5.3530    1.4740 ha        1 MOL      0.120185
     98 H42         0.1540    8.8070   -0.0370 ha        1 MOL      0.120185
     99 H43         4.2280    6.2100    1.0060 ha        1 MOL      0.183196
    100 H44         2.4370    9.9380   -0.2580 ha        1 MOL      0.183196
    101 H45         4.5390    9.4960   -0.4380 ho        1 MOL      0.307235
    102 N10        -2.2080    3.9540    0.5090 n         1 MOL     -0.506115
    103 C34        -3.3210    3.2110    1.0550 c3        1 MOL      0.024553
    104 C35        -4.3070    2.5460    0.0420 c         1 MOL      0.402718
    105 O15        -4.8190    1.3960    0.2790 o         1 MOL     -0.556369
    106 C36        -4.0380    4.0210    2.1730 c3        1 MOL      0.142347
    107 C37        -3.1810    4.9410    3.1270 c3        1 MOL      0.107530
    108 C38        -5.0870    3.2990    3.0800 c3        1 MOL     -0.303624
    109 C39        -2.2030    4.2550    4.1070 c3        1 MOL     -0.469591
    110 H46        -1.3040    3.4990    0.5670 hn        1 MOL      0.324850
    111 H47        -2.8700    2.3830    1.6060 h1        1 MOL      0.104657
    112 H48        -4.6550    4.7330    1.6140 hc        1 MOL     -0.016833
    113 H49        -3.8360    5.6040    3.7010 hc        1 MOL     -0.015295
    114 H50        -2.5850    5.6420    2.5420 hc        1 MOL     -0.015295
    115 H51        -5.6660    3.9630    3.7240 hc        1 MOL      0.077536
    116 H52        -5.7150    2.7210    2.3920 hc        1 MOL      0.077536
    117 H53        -4.5380    2.5800    3.6830 hc        1 MOL      0.077536
    118 H54        -2.8470    3.6350    4.7310 hc        1 MOL      0.133973
    119 H55        -1.4380    3.6850    3.5780 hc        1 MOL      0.133973
    120 H56        -1.6110    5.0170    4.6250 hc        1 MOL      0.133973
    121 N11        -4.5340    3.1580   -1.1900 n         1 MOL     -0.163908
    122 C40        -4.9500    2.6130   -2.4050 c3        1 MOL     -0.162703
    123 C41        -6.3480    1.9550   -2.2050 c         1 MOL      0.616691
    124 O16        -6.6550    1.1280   -3.0330 o         1 MOL     -0.579574
    125 C42        -5.0000    3.6760   -3.4910 c3        1 MOL      0.184544
    126 O17        -5.6610    4.8060   -3.0720 oh        1 MOL     -0.634206
    127 H57        -4.1540    4.0880   -1.1850 hn        1 MOL      0.227361
    128 H58        -4.1260    1.9180   -2.5980 h1        1 MOL      0.066479
    129 H59        -5.3090    3.2530   -4.4410 h1        1 MOL      0.031864
    130 H60        -3.9660    3.9540   -3.7200 h1        1 MOL      0.031864
    131 H61        -5.7300    5.4690   -3.7600 ho        1 MOL      0.425427
    132 N12        -7.1820    2.2730   -1.2390 n         1 MOL     -0.312566
    133 C43        -8.5780    1.7960   -1.0020 c3        1 MOL      0.191958
    134 C44        -8.6430    0.2990   -1.0060 c         1 MOL      0.495198
    135 O18        -9.7610   -0.2540   -1.0610 o         1 MOL     -0.588576
    136 C45        -9.5520    2.4450   -1.9830 c3        1 MOL     -0.196402
    137 H62        -6.8420    3.0250   -0.6580 hn        1 MOL      0.206318
    138 H63        -8.9330    2.1680   -0.0440 h1        1 MOL      0.051152
    139 H64       -10.6070    2.3330   -1.7310 hc        1 MOL      0.055037
    140 H65        -9.2620    3.4920   -2.0620 hc        1 MOL      0.055037
    141 H66        -9.3600    1.9680   -2.9350 hc        1 MOL      0.055037
    142 N13        -7.6210   -0.4820   -0.7530 n         1 MOL     -0.553821
    143 C46        -7.6460   -1.9470   -0.6330 c3        1 MOL      0.623925
    144 C47        -6.8620   -2.2530    0.6150 c         1 MOL      0.338656
    145 O19        -5.9930   -1.4210    0.9720 o         1 MOL     -0.384235
    146 C48        -6.9830   -2.5770   -1.8800 c3        1 MOL     -0.481012
    147 H67        -6.7270   -0.0900   -0.4960 hn        1 MOL      0.220911
    148 H68        -8.6270   -2.4080   -0.5710 h1        1 MOL     -0.069902
    149 H69        -7.0440   -3.6720   -1.8390 hc        1 MOL      0.125302
    150 H70        -7.4550   -2.1670   -2.7750 hc        1 MOL      0.125302
    151 H71        -5.9190   -2.3460   -1.9470 hc        1 MOL      0.125302
    152 N14        -7.1350   -3.4400    1.2270 n         1 MOL     -0.544042
    153 C49        -6.4200   -3.8750    2.4370 c3        1 MOL      0.000242
    154 C50        -6.7430   -3.1360    3.7530 c         1 MOL      0.332342
    155 O20        -6.0380   -3.1490    4.8060 o         1 MOL     -0.484591
    156 C51        -4.9180   -4.1370    2.2420 c3        1 MOL      0.361030
    157 C52        -4.6940   -5.3420    1.2750 c3        1 MOL     -0.062852
    158 C53        -3.2150   -5.8030    1.1540 c         1 MOL      0.737984
    159 O21        -2.6530   -6.3240    2.1130 o         1 MOL     -0.759844
    160 O22        -2.7320   -5.7340    0.0570 o         1 MOL     -0.759844
    161 H72        -7.7690   -4.0700    0.7740 hn        1 MOL      0.321450
    162 H73        -6.8090   -4.8670    2.6550 h1        1 MOL      0.060220
    163 H74        -4.4250   -4.4060    3.1810 hc        1 MOL     -0.069880
    164 H75        -4.4460   -3.2260    1.8780 hc        1 MOL     -0.069880
    165 H76        -5.2090   -5.1720    0.3270 hc        1 MOL     -0.036165
    166 H77        -5.2320   -6.1460    1.7920 hc        1 MOL     -0.036165
    167 N15        -7.8070   -2.3330    3.6790 n         1 MOL     -0.223532
    168 C54        -8.2520   -1.3160    4.6280 c3        1 MOL     -0.018521
    169 H78        -7.6260   -1.3540    5.5200 h1        1 MOL      0.049963
    170 H79        -8.1700   -0.3310    4.1700 h1        1 MOL      0.049963
    171 H80        -9.2890   -1.5050    4.9040 h1        1 MOL      0.049963
    172 H81        -8.3220   -2.2470    2.8080 hn        1 MOL      0.196236
    173 Ca1        -0.2320   -5.0220   -0.2690 Ca        1 MOL      1.796574
    174 O23         0.4420   -4.3900   -2.8520 oh        1 MOL     -0.864473
    175 H82         0.3470   -3.7150   -3.5240 ho        1 MOL      0.424107
    176 H83         0.0090   -5.1620   -3.2230 ho        1 MOL      0.424107
    177 O24        -0.1550   -7.1830   -2.0810 oh        1 MOL     -0.864473
    178 H84        -0.7000   -7.7550   -2.6250 ho        1 MOL      0.424107
    179 H85         0.7230   -7.5820   -2.1190 ho        1 MOL      0.424107
    180 O25        -0.3520   -7.3380    0.9930 oh        1 MOL     -0.864473
    181 H86        -0.2130   -8.2860    1.0070 ho        1 MOL      0.424107
    182 H87        -1.0380   -7.1870    1.6450 ho        1 MOL      0.424107
    183 O26         0.9070   -4.9400    2.0950 oh        1 MOL     -0.864473
    184 H88         1.1080   -5.8260    2.3890 ho        1 MOL      0.424107
    185 H89         0.8410   -4.4360    2.9010 ho        1 MOL      0.424107
    186 O27         2.3550   -5.9880   -0.8740 oh        1 MOL     -0.864473
    187 H90         2.7100   -6.5180   -1.5890 ho        1 MOL      0.424107
    188 H91         3.0680   -5.9350   -0.2430 ho        1 MOL      0.424107
    189 O28        -1.3880   -3.0130    1.6890 oh        1 MOL     -0.864473
    190 H92        -2.1750   -2.4640    1.5810 ho        1 MOL      0.424107
    191 H93        -0.6590   -2.4030    1.6360 ho        1 MOL      0.424107
@<TRIPOS>BOND
     1    1    2 1   
     2    1    4 1   
     3    1    5 1   
     4    1    6 1   
     5    2    3 2   
     6    2    7 1   
     7    7    8 1   
     8    7   15 1   
     9    8    9 1   
    10    8   11 1   
    11    8   16 1   
    12    9   10 2   
    13    9   19 1   
    14   11   12 1   
    15   11   17 1   
    16   11   18 1   
    17   12   13 1   
    18   12   14 1   
    19   19   20 1   
    20   19   28 1   
    21   20   21 1   
    22   20   23 1   
    23   20   29 1   
    24   21   22 2   
    25   21   41 1   
    26   23   24 1   
    27   23   30 1   
    28   23   31 1   
    29   24   25 1   
    30   24   32 1   
    31   24   33 1   
    32   25   26 1   
    33   25   34 1   
    34   25   35 1   
    35   26   27 1   
    36   26   36 1   
    37   26   37 1   
    38   27   38 1   
    39   27   39 1   
    40   27   40 1   
    41   41   42 1   
    42   41   49 1   
    43   42   43 1   
    44   42   45 1   
    45   42   50 1   
    46   43   44 2   
    47   43   53 1   
    48   45   46 1   
    49   45   51 1   
    50   45   52 1   
    51   46   47 1   
    52   46   48 1   
    53   53   54 1   
    54   53   57 1   
    55   54   55 1   
    56   54   58 1   
    57   54   59 1   
    58   55   56 2   
    59   55   60 1   
    60   60   61 1   
    61   60   68 1   
    62   61   62 1   
    63   61   64 1   
    64   61   69 1   
    65   62   63 2   
    66   62   74 1   
    67   64   65 1   
    68   64   70 1   
    69   64   71 1   
    70   65   66 1   
    71   65   67 2   
    72   66   72 1   
    73   66   73 1   
    74   74   75 1   
    75   74   78 1   
    76   75   76 1   
    77   75   79 1   
    78   75   80 1   
    79   76   77 2   
    80   76   81 1   
    81   81   82 1   
    82   81   93 1   
    83   82   83 1   
    84   82   85 1   
    85   82   94 1   
    86   83   84 2   
    87   83  102 1   
    88   85   86 1   
    89   85   95 1   
    90   85   96 1   
    91   86   87 ar  
    92   86   88 ar  
    93   87   89 ar  
    94   87   97 1   
    95   88   90 ar  
    96   88   98 1   
    97   89   91 ar  
    98   89   99 1   
    99   90   91 ar  
   100   90  100 1   
   101   91   92 1   
   102   92  101 1   
   103  102  103 1   
   104  102  110 1   
   105  103  104 1   
   106  103  106 1   
   107  103  111 1   
   108  104  105 2   
   109  104  121 1   
   110  106  107 1   
   111  106  108 1   
   112  106  112 1   
   113  107  109 1   
   114  107  113 1   
   115  107  114 1   
   116  108  115 1   
   117  108  116 1   
   118  108  117 1   
   119  109  118 1   
   120  109  119 1   
   121  109  120 1   
   122  121  122 1   
   123  121  127 1   
   124  122  123 1   
   125  122  125 1   
   126  122  128 1   
   127  123  124 2   
   128  123  132 1   
   129  125  126 1   
   130  125  129 1   
   131  125  130 1   
   132  126  131 1   
   133  132  133 1   
   134  132  137 1   
   135  133  134 1   
   136  133  136 1   
   137  133  138 1   
   138  134  135 2   
   139  134  142 1   
   140  136  139 1   
   141  136  140 1   
   142  136  141 1   
   143  142  143 1   
   144  142  147 1   
   145  143  144 1   
   146  143  146 1   
   147  143  148 1   
   148  144  145 2   
   149  144  152 1   
   150  146  149 1   
   151  146  150 1   
   152  146  151 1   
   153  152  153 1   
   154  152  161 1   
   155  153  154 1   
   156  153  156 1   
   157  153  162 1   
   158  154  155 2   
   159  154  167 1   
   160  156  157 1   
   161  156  163 1   
   162  156  164 1   
   163  157  158 1   
   164  157  165 1   
   165  157  166 1   
   166  158  159 1   
   167  158  160 1   
   168  167  168 1   
   169  167  172 1   
   170  168  169 1   
   171  168  170 1   
   172  168  171 1   
   173  174  175 1   
   174  174  176 1   
   175  177  178 1   
   176  177  179 1   
   177  180  181 1   
   178  180  182 1   
   179  183  184 1   
   180  183  185 1   
   181  186  187 1   
   182  186  188 1   
   183  189  190 1   
   184  189  191 1   
@<TRIPOS>SUBSTRUCTURE
     1 MOL         1 TEMP              0 ****  ****    0 ROOT
