@<TRIPOS>MOLECULE
MOL
  181   177     1     0     0
SMALL
resp


@<TRIPOS>ATOM
      1 C1          9.7080   -6.3560    2.9920 c3        1 MOL     -0.443467
      2 C2          8.9380   -5.5990    1.9390 c         1 MOL      0.754157
      3 O1          8.3640   -6.1730    0.9940 o         1 MOL     -0.598505
      4 H1         10.1090   -7.2730    2.5590 hc        1 MOL      0.113357
      5 H2         10.5290   -5.7390    3.3570 hc        1 MOL      0.113357
      6 H3          9.0440   -6.6050    3.8190 hc        1 MOL      0.113357
      7 N1          8.8920   -4.2610    1.9790 n         1 MOL     -0.517329
      8 C3          9.1500   -3.4020    3.1620 c3        1 MOL      0.108279
      9 C4         10.1550   -2.2580    2.8690 c         1 MOL      0.508802
     10 O2         10.7870   -1.7880    3.8130 o         1 MOL     -0.537727
     11 C5          7.8300   -2.7750    3.5960 c3        1 MOL     -0.271151
     12 C6          6.9380   -2.3200    2.4200 c         1 MOL      0.694495
     13 O3          5.8690   -2.8730    2.0480 o         1 MOL     -0.736833
     14 O4          7.1900   -1.2220    1.8380 o         1 MOL     -0.736833
     15 H4          8.5810   -3.9120    1.0910 hn        1 MOL      0.189857
     16 H5          9.4980   -3.9790    4.0120 h1        1 MOL      0.066988
     17 H6          7.9000   -1.9560    4.3120 hc        1 MOL      0.096635
     18 H7          7.4220   -3.6750    4.0630 hc        1 MOL      0.096635
     19 N2         10.2000   -1.7650    1.6340 n         1 MOL     -0.521777
     20 C7         11.2950   -0.9480    1.1880 c3        1 MOL      0.309061
     21 C8         10.9360    0.1170    0.1600 c         1 MOL      0.328908
     22 O5         11.7620    0.8170   -0.4240 o         1 MOL     -0.531577
     23 C9         12.4460   -1.7910    0.7150 c3        1 MOL     -0.421566
     24 H8          9.6280   -2.1620    0.9030 hn        1 MOL      0.371140
     25 H9         11.6000   -0.4540    2.1180 h1        1 MOL      0.049170
     26 H10        12.8070   -2.4960    1.4610 hc        1 MOL      0.111321
     27 H11        12.0920   -2.2230   -0.2230 hc        1 MOL      0.111321
     28 H12        13.2870   -1.1230    0.5090 hc        1 MOL      0.111321
     29 N3          9.6420    0.2290   -0.0930 n         1 MOL     -0.146313
     30 C10         8.9760    1.1100   -1.1200 c3        1 MOL     -0.086650
     31 C11         7.5850    1.7070   -0.7550 c         1 MOL      0.428859
     32 O6          6.6890    1.0730   -0.2150 o         1 MOL     -0.471208
     33 C12         8.7940    0.3320   -2.4340 c3        1 MOL     -0.006346
     34 C13         8.3470   -1.1320   -2.2500 c         1 MOL      0.601774
     35 O7          7.4610   -1.4250   -1.3770 o         1 MOL     -0.669480
     36 O8          8.7440   -2.0310   -3.0150 o         1 MOL     -0.669480
     37 H13         9.0530   -0.4440    0.3820 hn        1 MOL      0.119431
     38 H14         9.7040    1.8860   -1.3420 h1        1 MOL      0.076282
     39 H15         9.7430    0.4630   -2.9470 hc        1 MOL      0.025326
     40 H16         8.1020    0.8650   -3.0990 hc        1 MOL      0.025326
     41 N4          7.4100    2.9660   -1.1570 n         1 MOL     -0.356540
     42 C14         6.2210    3.7570   -0.8770 c3        1 MOL     -0.062733
     43 C15         5.0760    3.3030   -1.6760 c         1 MOL      0.573663
     44 O9          5.3110    3.0720   -2.8880 o         1 MOL     -0.499124
     45 H17         8.1330    3.4470   -1.6610 hn        1 MOL      0.289747
     46 H18         6.4430    4.8150   -0.9980 h1        1 MOL      0.079910
     47 H19         5.9890    3.6510    0.1890 h1        1 MOL      0.079910
     48 N5          3.8420    3.3190   -1.1170 n         1 MOL     -0.671826
     49 C16         2.5880    3.2470   -1.8990 c3        1 MOL      0.256790
     50 C17         1.7350    4.5490   -1.6670 c         1 MOL      0.401068
     51 O10         0.4650    4.4700   -1.7540 o         1 MOL     -0.400791
     52 C18         1.7530    1.9840   -1.6510 c3        1 MOL     -0.346036
     53 C19         2.5360    0.7270   -1.8870 c         1 MOL      1.053666
     54 N6          2.6200    0.1820   -3.0650 n         1 MOL     -1.012699
     55 O11         3.1610    0.2540   -0.9680 o         1 MOL     -0.789554
     56 H20         3.6430    3.7590   -0.2300 hn        1 MOL      0.334815
     57 H21         2.7310    3.2360   -2.9860 h1        1 MOL      0.042125
     58 H22         0.9130    1.8520   -2.3470 hc        1 MOL      0.073239
     59 H23         1.3070    1.9030   -0.6610 hc        1 MOL      0.073239
     60 H24         2.0170    0.5570   -3.7800 hn        1 MOL      0.435314
     61 H25         2.9600   -0.7690   -3.1050 hn        1 MOL      0.435314
     62 N7          2.2760    5.6850   -1.2700 n         1 MOL     -0.402514
     63 C20         1.5770    6.8190   -0.7410 c3        1 MOL      0.116229
     64 C21         0.1970    7.1910   -1.3520 c         1 MOL      0.469145
     65 O12         0.1930    7.8780   -2.3630 o         1 MOL     -0.540070
     66 H26         3.2710    5.7150   -1.1220 hn        1 MOL      0.264218
     67 H27         2.2700    7.6450   -0.9000 h1        1 MOL      0.030990
     68 H28         1.4900    6.7800    0.3440 h1        1 MOL      0.030990
     69 N8         -0.9670    6.9540   -0.6900 n         1 MOL     -0.293004
     70 C22        -1.0770    5.9470    0.3570 c3        1 MOL     -0.265816
     71 C23        -2.1230    4.7930    0.0390 c         1 MOL      0.563405
     72 O13        -3.2760    4.9900   -0.3910 o         1 MOL     -0.529665
     73 C24        -1.4170    6.5650    1.7780 c3        1 MOL      0.460955
     74 C25        -0.1360    7.1770    2.3690 c3        1 MOL     -0.461889
     75 O14        -2.3250    7.6830    1.7030 oh        1 MOL     -0.622514
     76 H29        -1.7590    7.3610   -1.1670 hn        1 MOL      0.302419
     77 H30        -0.2000    5.3100    0.4670 h1        1 MOL      0.134826
     78 H31        -1.7840    5.8020    2.4690 h1        1 MOL      0.006903
     79 H32        -3.1220    7.5360    2.2210 ho        1 MOL      0.400012
     80 H33         0.0840    8.1120    1.8500 hc        1 MOL      0.108434
     81 H34        -0.4070    7.3590    3.4120 hc        1 MOL      0.108434
     82 H35         0.7060    6.4980    2.4580 hc        1 MOL      0.108434
     83 N9         -1.7560    3.5170    0.2920 n         1 MOL     -0.415044
     84 C26        -2.6460    2.3340    0.1310 c3        1 MOL     -0.043027
     85 C27        -2.7570    1.4170    1.4060 c         1 MOL      0.609706
     86 O15        -1.7670    0.9370    1.9500 o         1 MOL     -0.599223
     87 C28        -2.2500    1.3820   -1.0890 c3        1 MOL      0.070786
     88 C29        -2.2220    2.2730   -2.2670 c3        1 MOL      0.075517
     89 C30        -3.2570    0.2170   -1.2140 c3        1 MOL     -0.024799
     90 C31        -1.8930    1.6800   -3.6240 c3        1 MOL     -0.279625
     91 H36        -0.9050    3.3250    0.7960 hn        1 MOL      0.246741
     92 H37        -3.6530    2.6780   -0.0940 h1        1 MOL      0.089463
     93 H38        -1.2290    1.0300   -0.9830 hc        1 MOL     -0.009850
     94 H39        -1.5170    3.0790   -2.0540 hc        1 MOL      0.003182
     95 H40        -3.1650    2.7900   -2.4360 hc        1 MOL      0.003182
     96 H41        -3.3370   -0.3300   -0.2710 hc        1 MOL      0.006386
     97 H42        -4.2560    0.6270   -1.3820 hc        1 MOL      0.006386
     98 H43        -3.0000   -0.5120   -1.9790 hc        1 MOL      0.006386
     99 H44        -2.6740    0.9880   -3.9320 hc        1 MOL      0.057497
    100 H45        -1.7790    2.4900   -4.3380 hc        1 MOL      0.057497
    101 H46        -1.0380    0.9930   -3.6180 hc        1 MOL      0.057497
    102 N10        -3.9490    1.1230    1.9540 n         1 MOL     -0.515822
    103 C32        -5.2580    1.7560    1.5980 c3        1 MOL      0.434171
    104 C33        -6.3960    0.6870    1.5710 c         1 MOL      0.248185
    105 O16        -6.3070   -0.3160    2.2540 o         1 MOL     -0.434543
    106 C34        -5.6080    2.9840    2.3690 c3        1 MOL     -0.166801
    107 C35        -5.3130    2.8240    3.8950 c         1 MOL      0.608376
    108 O17        -4.5350    3.5820    4.5080 o         1 MOL     -0.687539
    109 O18        -5.7550    1.7860    4.4850 o         1 MOL     -0.687539
    110 H47        -3.8870    0.4960    2.7380 hn        1 MOL      0.336271
    111 H48        -5.3340    2.1290    0.5770 h1        1 MOL     -0.023844
    112 H49        -6.6700    3.2030    2.2700 hc        1 MOL     -0.017291
    113 H50        -4.9560    3.7170    1.9060 hc        1 MOL     -0.017291
    114 N11        -7.4750    1.0170    0.8000 n         1 MOL     -0.425958
    115 C36        -8.6040    0.1740    0.6870 c3        1 MOL      0.464300
    116 C37        -9.0590   -0.1050   -0.7400 c         1 MOL      0.144120
    117 O19        -9.1390    0.8700   -1.5120 o         1 MOL     -0.496194
    118 C38        -9.7330    0.8260    1.5690 c3        1 MOL     -0.231778
    119 C39       -10.9930   -0.0680    1.7990 ca        1 MOL      0.140632
    120 C40       -11.2110   -0.8050    2.9860 ca        1 MOL     -0.214552
    121 C41       -11.9260   -0.2090    0.7270 ca        1 MOL     -0.214552
    122 C42       -12.4360   -1.4800    3.1370 ca        1 MOL     -0.083441
    123 C43       -13.0580   -1.0520    0.8580 ca        1 MOL     -0.083441
    124 C44       -13.3170   -1.6240    2.1190 ca        1 MOL     -0.147988
    125 H51        -7.4320    1.8980    0.3110 hn        1 MOL      0.256741
    126 H52        -8.4220   -0.7300    1.2730 h1        1 MOL      0.014554
    127 H53       -10.1380    1.6560    0.9940 hc        1 MOL      0.077018
    128 H54        -9.2960    1.1690    2.5120 hc        1 MOL      0.077018
    129 H55       -10.5420   -0.7320    3.8270 ha        1 MOL      0.153781
    130 H56       -11.7440    0.2910   -0.2180 ha        1 MOL      0.153781
    131 H57       -12.6770   -1.8350    4.1230 ha        1 MOL      0.097100
    132 H58       -13.7490   -1.1590    0.0390 ha        1 MOL      0.097100
    133 H59       -14.2520   -2.1540    2.2990 ha        1 MOL      0.093089
    134 N12        -9.3050   -1.3540   -1.1630 n         1 MOL     -0.005360
    135 C45        -9.2890   -2.5350   -0.3040 c3        1 MOL     -0.164253
    136 C46        -7.9450   -3.1950   -0.0510 c         1 MOL      0.608911
    137 O20        -7.6220   -3.4740    1.0870 o         1 MOL     -0.549468
    138 C47       -10.2550   -3.5080   -1.0540 c3        1 MOL      0.029055
    139 C48        -9.9070   -3.2710   -2.5090 c3        1 MOL     -0.025652
    140 C49        -9.5730   -1.7710   -2.5430 c3        1 MOL     -0.091374
    141 H60        -9.7870   -2.2390    0.6200 h1        1 MOL      0.099437
    142 H61        -9.9690   -4.5160   -0.7360 hc        1 MOL      0.013331
    143 H62       -11.3130   -3.3420   -0.8360 hc        1 MOL      0.013331
    144 H63        -9.0820   -3.8690   -2.8860 hc        1 MOL      0.024406
    145 H64       -10.7840   -3.4420   -3.1270 hc        1 MOL      0.024406
    146 H65        -8.6970   -1.6360   -3.1700 h1        1 MOL      0.068607
    147 H66       -10.3750   -1.1650   -2.9730 h1        1 MOL      0.068607
    148 N13        -7.1060   -3.3660   -1.0790 n         1 MOL     -0.626904
    149 C50        -5.8810   -4.2170   -1.0040 c3        1 MOL      0.433080
    150 C51        -6.2670   -5.7110   -1.3120 c         1 MOL      0.447507
    151 O21        -6.6550   -5.9890   -2.3900 o         1 MOL     -0.549727
    152 C52        -4.8320   -3.6580   -1.9720 c3        1 MOL     -0.408516
    153 C53        -3.6730   -4.6510   -2.2670 c3        1 MOL      0.062128
    154 C54        -2.6800   -4.2040   -3.3570 c         1 MOL      0.720359
    155 O22        -3.0980   -4.1120   -4.5270 o         1 MOL     -0.738496
    156 O23        -1.4980   -4.1750   -3.0590 o         1 MOL     -0.738496
    157 H67        -7.4460   -3.0040   -1.9580 hn        1 MOL      0.349572
    158 H68        -5.5410   -4.1280    0.0270 h1        1 MOL      0.025196
    159 H69        -4.4930   -2.6960   -1.5920 hc        1 MOL      0.089960
    160 H70        -5.3370   -3.4690   -2.9240 hc        1 MOL      0.089960
    161 H71        -3.9170   -5.6900   -2.4760 hc        1 MOL     -0.041191
    162 H72        -3.0650   -4.6960   -1.3530 hc        1 MOL     -0.041191
    163 N14        -6.3090   -6.7060   -0.4090 n         1 MOL     -0.402455
    164 C55        -5.9200   -6.6650    0.9990 c3        1 MOL      0.006312
    165 H73        -6.2940   -5.7460    1.4520 h1        1 MOL      0.034961
    166 H74        -6.3440   -7.5240    1.5190 h1        1 MOL      0.034961
    167 H75        -4.8340   -6.6920    1.0780 h1        1 MOL      0.034961
    168 H76        -6.4350   -7.6200   -0.8160 hn        1 MOL      0.282462
    169 Ca1         5.2010   -1.2350   -0.0480 Ca        1 MOL      1.733810
    170 O24         2.8370   -2.2390    0.7040 oh        1 MOL     -0.777585
    171 H77         2.8130   -2.4160    1.6510 ho        1 MOL      0.399181
    172 H78         1.9170   -2.0750    0.4690 ho        1 MOL      0.399181
    173 O25         4.3050    0.2540    2.0340 oh        1 MOL     -0.777585
    174 H79         3.8520   -0.1530    2.7800 ho        1 MOL      0.399181
    175 H80         4.5590    1.1180    2.3630 ho        1 MOL      0.399181
    176 O26         6.3430   -3.7440   -0.9120 oh        1 MOL     -0.777585
    177 H81         7.1980   -3.3080   -0.9510 ho        1 MOL      0.399181
    178 H82         6.4800   -4.5710   -1.3590 ho        1 MOL      0.399181
    179 O27         4.5330   -2.2030   -2.4720 oh        1 MOL     -0.777585
    180 H83         3.9390   -2.7600   -2.9760 ho        1 MOL      0.399181
    181 H84         5.1980   -1.9170   -3.1040 ho        1 MOL      0.399181
@<TRIPOS>BOND
     1    1    2 1   
     2    1    4 1   
     3    1    5 1   
     4    1    6 1   
     5    2    3 2   
     6    2    7 1   
     7    7    8 1   
     8    7   15 1   
     9    8    9 1   
    10    8   11 1   
    11    8   16 1   
    12    9   10 2   
    13    9   19 1   
    14   11   12 1   
    15   11   17 1   
    16   11   18 1   
    17   12   13 1   
    18   12   14 1   
    19   19   20 1   
    20   19   24 1   
    21   20   21 1   
    22   20   23 1   
    23   20   25 1   
    24   21   22 2   
    25   21   29 1   
    26   23   26 1   
    27   23   27 1   
    28   23   28 1   
    29   29   30 1   
    30   29   37 1   
    31   30   31 1   
    32   30   33 1   
    33   30   38 1   
    34   31   32 2   
    35   31   41 1   
    36   33   34 1   
    37   33   39 1   
    38   33   40 1   
    39   34   35 1   
    40   34   36 1   
    41   41   42 1   
    42   41   45 1   
    43   42   43 1   
    44   42   46 1   
    45   42   47 1   
    46   43   44 2   
    47   43   48 1   
    48   48   49 1   
    49   48   56 1   
    50   49   50 1   
    51   49   52 1   
    52   49   57 1   
    53   50   51 2   
    54   50   62 1   
    55   52   53 1   
    56   52   58 1   
    57   52   59 1   
    58   53   54 1   
    59   53   55 2   
    60   54   60 1   
    61   54   61 1   
    62   62   63 1   
    63   62   66 1   
    64   63   64 1   
    65   63   67 1   
    66   63   68 1   
    67   64   65 2   
    68   64   69 1   
    69   69   70 1   
    70   69   76 1   
    71   70   71 1   
    72   70   73 1   
    73   70   77 1   
    74   71   72 2   
    75   71   83 1   
    76   73   74 1   
    77   73   75 1   
    78   73   78 1   
    79   74   80 1   
    80   74   81 1   
    81   74   82 1   
    82   75   79 1   
    83   83   84 1   
    84   83   91 1   
    85   84   85 1   
    86   84   87 1   
    87   84   92 1   
    88   85   86 2   
    89   85  102 1   
    90   87   88 1   
    91   87   89 1   
    92   87   93 1   
    93   88   90 1   
    94   88   94 1   
    95   88   95 1   
    96   89   96 1   
    97   89   97 1   
    98   89   98 1   
    99   90   99 1   
   100   90  100 1   
   101   90  101 1   
   102  102  103 1   
   103  102  110 1   
   104  103  104 1   
   105  103  106 1   
   106  103  111 1   
   107  104  105 2   
   108  104  114 1   
   109  106  107 1   
   110  106  112 1   
   111  106  113 1   
   112  107  108 1   
   113  107  109 1   
   114  114  115 1   
   115  114  125 1   
   116  115  116 1   
   117  115  118 1   
   118  115  126 1   
   119  116  117 2   
   120  116  134 1   
   121  118  119 1   
   122  118  127 1   
   123  118  128 1   
   124  119  120 ar  
   125  119  121 ar  
   126  120  122 ar  
   127  120  129 1   
   128  121  123 ar  
   129  121  130 1   
   130  122  124 ar  
   131  122  131 1   
   132  123  124 ar  
   133  123  132 1   
   134  124  133 1   
   135  134  135 1   
   136  134  140 1   
   137  135  136 1   
   138  135  138 1   
   139  135  141 1   
   140  136  137 2   
   141  136  148 1   
   142  138  139 1   
   143  138  142 1   
   144  138  143 1   
   145  139  140 1   
   146  139  144 1   
   147  139  145 1   
   148  140  146 1   
   149  140  147 1   
   150  148  149 1   
   151  148  157 1   
   152  149  150 1   
   153  149  152 1   
   154  149  158 1   
   155  150  151 2   
   156  150  163 1   
   157  152  153 1   
   158  152  159 1   
   159  152  160 1   
   160  153  154 1   
   161  153  161 1   
   162  153  162 1   
   163  154  155 1   
   164  154  156 1   
   165  163  164 1   
   166  163  168 1   
   167  164  165 1   
   168  164  166 1   
   169  164  167 1   
   170  170  171 1   
   171  170  172 1   
   172  173  174 1   
   173  173  175 1   
   174  176  177 1   
   175  176  178 1   
   176  179  180 1   
   177  179  181 1   
@<TRIPOS>SUBSTRUCTURE
     1 MOL         1 TEMP              0 ****  ****    0 ROOT
