@<TRIPOS>MOLECULE
MOL
  185   180     1     0     0
SMALL
resp


@<TRIPOS>ATOM
      1 C1          3.9190   -0.1900    3.3600 c3        1 MOL     -0.088514
      2 C2          5.0630    0.2060    2.3970 c         1 MOL      0.584693
      3 O1          4.6370    0.4100    1.2140 o         1 MOL     -0.496267
      4 H1          4.2190    0.0200    4.3860 hc        1 MOL      0.015588
      5 H2          3.0240    0.3840    3.1190 hc        1 MOL      0.015588
      6 H3          3.7070   -1.2540    3.2560 hc        1 MOL      0.015588
      7 N1          6.3440    0.1570    2.7910 n         1 MOL     -0.486589
      8 C3          7.4760    0.6380    1.9650 c3        1 MOL      0.025981
      9 C4          7.5330   -0.1200    0.6100 c         1 MOL      0.424098
     10 O2          7.9580    0.5130   -0.3580 o         1 MOL     -0.481098
     11 C5          7.6220    2.1440    2.0190 c3        1 MOL     -0.369766
     12 C6          7.8530    2.8000    3.4330 c         1 MOL      0.672504
     13 O3          8.7240    2.3930    4.2350 o         1 MOL     -0.644851
     14 O4          7.1100    3.7690    3.7680 o         1 MOL     -0.644851
     15 H4          6.5990   -0.2510    3.6760 hn        1 MOL      0.336950
     16 H5          8.3280    0.2190    2.5090 h1        1 MOL      0.028301
     17 H6          6.7020    2.5730    1.5950 hc        1 MOL      0.175969
     18 H7          8.3980    2.4920    1.3390 hc        1 MOL      0.175969
     19 N2          7.0040   -1.3830    0.5500 n         1 MOL     -0.407523
     20 C7          7.2140   -2.2450   -0.6460 c3        1 MOL      0.256940
     21 C8          5.9130   -2.9500   -1.1040 c         1 MOL      0.336168
     22 O5          5.9650   -3.8710   -1.9660 o         1 MOL     -0.513849
     23 C9          8.3350   -3.2320   -0.4050 c3        1 MOL     -0.003092
     24 C10         9.5810   -2.6040    0.2190 c3        1 MOL      0.135690
     25 C11        10.7930   -3.4500    0.0110 c3        1 MOL      0.051059
     26 C12        12.0060   -3.0410    0.8950 c3        1 MOL     -0.037470
     27 N3         13.1620   -4.0210    0.8960 n4        1 MOL     -0.159337
     28 H8          6.3850   -1.7480    1.2490 hn        1 MOL      0.220142
     29 H9          7.5890   -1.6020   -1.4470 h1        1 MOL      0.060042
     30 H10         8.6330   -3.5940   -1.3870 hc        1 MOL     -0.024237
     31 H11         7.9860   -4.0310    0.2580 hc        1 MOL     -0.024237
     32 H12         9.2880   -2.5420    1.2660 hc        1 MOL     -0.026918
     33 H13         9.7860   -1.6250   -0.2120 hc        1 MOL     -0.026918
     34 H14        11.1100   -3.3790   -1.0250 hc        1 MOL      0.008903
     35 H15        10.5510   -4.4990    0.2130 hc        1 MOL      0.008903
     36 H16        11.6880   -2.8720    1.9220 hx        1 MOL      0.085833
     37 H17        12.3990   -2.1200    0.4720 hx        1 MOL      0.085833
     38 H18        13.5920   -4.0650   -0.0160 hn        1 MOL      0.231539
     39 H19        13.8950   -3.6950    1.5150 hn        1 MOL      0.231539
     40 H20        12.9730   -4.9450    1.2330 hn        1 MOL      0.231539
     41 N4          4.7300   -2.5990   -0.5270 n         1 MOL     -0.240653
     42 C13         3.4360   -3.2720   -0.7000 c3        1 MOL     -0.186553
     43 C14         2.8220   -2.9910   -2.0910 c         1 MOL      0.722098
     44 O6          3.2070   -2.0250   -2.7720 o         1 MOL     -0.481051
     45 C15         2.4950   -2.9020    0.5250 c3        1 MOL      0.058415
     46 C16         1.1440   -3.5570    0.2810 c         1 MOL      0.580673
     47 O7          0.9590   -4.7890    0.1450 o         1 MOL     -0.773019
     48 O8          0.2180   -2.7910   -0.0860 o         1 MOL     -0.773019
     49 H21         4.8470   -1.7630    0.0250 hn        1 MOL      0.170039
     50 H22         3.6450   -4.3300   -0.5550 h1        1 MOL      0.110704
     51 H23         2.4060   -1.8150    0.5690 hc        1 MOL      0.031333
     52 H24         2.8790   -3.2240    1.4920 hc        1 MOL      0.031333
     53 N5          1.9540   -3.8820   -2.6100 n         1 MOL     -0.631771
     54 C17         1.2700   -3.7830   -3.9320 c3        1 MOL      0.082118
     55 C18         0.5690   -2.4410   -4.2440 c         1 MOL      0.311788
     56 O9          0.6270   -1.7680   -5.3210 o         1 MOL     -0.494667
     57 H25         1.7160   -4.7150   -2.0880 hn        1 MOL      0.396719
     58 H26         0.5580   -4.5910   -4.0920 h1        1 MOL      0.066859
     59 H27         2.0070   -3.9770   -4.7120 h1        1 MOL      0.066859
     60 N6         -0.1850   -2.0100   -3.2270 n         1 MOL     -0.215404
     61 C19        -0.9520   -0.7780   -3.3110 c3        1 MOL     -0.054426
     62 C20        -0.1680    0.5060   -3.0900 c         1 MOL      0.380143
     63 O10        -0.7080    1.6460   -3.0930 o         1 MOL     -0.471189
     64 C21        -2.1490   -0.7900   -2.2730 c3        1 MOL     -0.223763
     65 C22        -3.1080   -1.9300   -2.3480 c         1 MOL      0.511420
     66 N7         -4.0630   -1.9910   -3.2880 n         1 MOL     -0.749597
     67 O11        -3.0200   -2.8320   -1.5190 o         1 MOL     -0.525035
     68 H28        -0.1560   -2.5400   -2.3610 hn        1 MOL      0.272347
     69 H29        -1.4360   -0.6970   -4.2910 h1        1 MOL      0.125254
     70 H30        -2.6920    0.1330   -2.4540 hc        1 MOL      0.124916
     71 H31        -1.7200   -0.6660   -1.2730 hc        1 MOL      0.124916
     72 H32        -4.1240   -1.3400   -4.0510 hn        1 MOL      0.375897
     73 H33        -4.5980   -2.8510   -3.3300 hn        1 MOL      0.375897
     74 N8          1.1270    0.4420   -2.8080 n         1 MOL     -0.100861
     75 C23         1.9270    1.6280   -2.5000 c3        1 MOL     -0.167739
     76 C24         1.4370    2.3070   -1.2800 c         1 MOL      0.792543
     77 O12         1.1180    1.6980   -0.2900 o         1 MOL     -0.636840
     78 H34         1.5600   -0.4720   -2.7230 hn        1 MOL      0.170617
     79 H35         1.7850    2.3380   -3.3140 h1        1 MOL      0.085402
     80 H36         3.0080    1.5180   -2.4010 h1        1 MOL      0.085402
     81 N9          1.4660    3.6130   -1.3470 n         1 MOL     -0.622682
     82 C25         1.0380    4.6510   -0.4270 c3        1 MOL      0.072822
     83 C26        -0.4510    4.5950   -0.0340 c         1 MOL      0.635324
     84 O13        -1.2040    5.4640   -0.3690 o         1 MOL     -0.559014
     85 C27         2.1190    4.8580    0.7130 c3        1 MOL     -0.034718
     86 C28         3.4750    5.3330    0.1740 ca        1 MOL      0.061057
     87 C29         4.5870    4.4420    0.3070 ca        1 MOL     -0.129204
     88 C30         3.6060    6.6100   -0.3380 ca        1 MOL     -0.129204
     89 C31         5.8310    4.8940   -0.0470 ca        1 MOL     -0.297449
     90 C32         4.8680    7.0530   -0.8230 ca        1 MOL     -0.297449
     91 C33         5.9800    6.2400   -0.6290 ca        1 MOL      0.402749
     92 O14         7.2050    6.7150   -0.9680 oh        1 MOL     -0.500301
     93 H37         1.6470    4.0000   -2.2640 hn        1 MOL      0.322415
     94 H38         1.2900    5.6000   -0.8920 h1        1 MOL      0.028792
     95 H39         2.0770    3.9900    1.3850 hc        1 MOL      0.023192
     96 H40         1.6870    5.6940    1.2640 hc        1 MOL      0.023192
     97 H41         4.3790    3.4580    0.7150 ha        1 MOL      0.124480
     98 H42         2.7560    7.2660   -0.4570 ha        1 MOL      0.124480
     99 H43         6.7320    4.3440    0.1220 ha        1 MOL      0.135887
    100 H44         4.9050    8.0170   -1.3190 ha        1 MOL      0.135887
    101 H45         7.2360    7.5370   -1.4640 ho        1 MOL      0.367621
    102 N10        -0.8050    3.5310    0.7470 n         1 MOL     -0.551791
    103 C34        -2.2210    3.2420    1.1890 c3        1 MOL      0.068964
    104 C35        -3.2710    2.9490    0.1440 c         1 MOL      0.501546
    105 O15        -3.9860    1.9710    0.2900 o         1 MOL     -0.538224
    106 C36        -2.7390    4.1170    2.3450 c3        1 MOL      0.007918
    107 C37        -1.8600    4.3190    3.6030 c3        1 MOL      0.000395
    108 C38        -4.1170    3.6870    2.9290 c3        1 MOL     -0.423963
    109 C39        -1.2000    3.0300    4.0560 c3        1 MOL     -0.245835
    110 H46        -0.0780    2.8610    0.9750 hn        1 MOL      0.398925
    111 H47        -2.1570    2.2540    1.6450 h1        1 MOL      0.075278
    112 H48        -2.8710    5.1300    1.9610 hc        1 MOL      0.035697
    113 H49        -2.3770    4.7060    4.4810 hc        1 MOL      0.034381
    114 H50        -1.0430    4.9950    3.3350 hc        1 MOL      0.034381
    115 H51        -4.4050    4.3490    3.7520 hc        1 MOL      0.117267
    116 H52        -4.9160    3.6200    2.1850 hc        1 MOL      0.117267
    117 H53        -4.0810    2.6930    3.3760 hc        1 MOL      0.117267
    118 H54        -1.9000    2.1980    4.1280 hc        1 MOL      0.071054
    119 H55        -0.4630    2.6730    3.3460 hc        1 MOL      0.071054
    120 H56        -0.7970    3.1660    5.0650 hc        1 MOL      0.071054
    121 N11        -3.2920    3.5770   -1.0330 n         1 MOL     -0.357340
    122 C40        -3.9440    3.0290   -2.1940 c3        1 MOL     -0.236473
    123 C41        -5.4310    2.9120   -1.9870 c         1 MOL      0.251872
    124 O16        -6.0460    2.1480   -2.7300 o         1 MOL     -0.467636
    125 C42        -3.5750    3.9360   -3.3670 c3        1 MOL      0.083991
    126 O17        -2.1740    3.9270   -3.4880 oh        1 MOL     -0.549154
    127 H57        -2.7340    4.3840   -1.2550 hn        1 MOL      0.305133
    128 H58        -3.5650    2.0060   -2.2920 h1        1 MOL      0.222564
    129 H59        -3.8410    4.9780   -3.1940 h1        1 MOL      0.097626
    130 H60        -4.0290    3.5010   -4.2590 h1        1 MOL      0.097626
    131 H61        -1.8080    3.1170   -3.1290 ho        1 MOL      0.301779
    132 N12        -6.0210    3.6890   -1.0680 n         1 MOL     -0.059844
    133 C43        -7.4260    3.7410   -0.7040 c3        1 MOL      0.198881
    134 C44        -8.1140    2.2980   -0.5710 c         1 MOL      0.466488
    135 O18        -9.2970    2.1260   -0.8290 o         1 MOL     -0.541577
    136 C45        -8.0680    4.6390   -1.7000 c3        1 MOL     -0.351109
    137 H62        -5.4380    4.3640   -0.5930 hn        1 MOL      0.165770
    138 H63        -7.5850    4.2460    0.2520 h1        1 MOL      0.041735
    139 H64        -7.3620    5.4680   -1.8270 hc        1 MOL      0.088976
    140 H65        -8.2650    4.1900   -2.6700 hc        1 MOL      0.088976
    141 H66        -8.9550    5.1070   -1.2760 hc        1 MOL      0.088976
    142 N13        -7.3330    1.3240   -0.2260 n         1 MOL     -0.564101
    143 C46        -7.6660   -0.1070   -0.3040 c3        1 MOL      0.719266
    144 C47        -7.4680   -0.8270    1.0520 c         1 MOL      0.162225
    145 O19        -6.7460   -0.3080    1.8040 o         1 MOL     -0.370833
    146 C48        -6.8230   -0.6620   -1.4010 c3        1 MOL     -0.447063
    147 H67        -6.3460    1.4900   -0.0890 hn        1 MOL      0.187448
    148 H68        -8.7040   -0.2300   -0.5880 h1        1 MOL     -0.085647
    149 H69        -6.8930   -1.7500   -1.4800 hc        1 MOL      0.112323
    150 H70        -7.1440   -0.2510   -2.3530 hc        1 MOL      0.112323
    151 H71        -5.7900   -0.3560   -1.2570 hc        1 MOL      0.112323
    152 N14        -7.9520   -2.0490    1.2130 n         1 MOL     -0.308148
    153 C49        -7.7810   -2.9170    2.3560 c3        1 MOL      0.009985
    154 C50        -8.0400   -2.1620    3.6440 c         1 MOL      0.362199
    155 O20        -7.3520   -2.3570    4.6480 o         1 MOL     -0.446519
    156 C51        -6.4180   -3.5640    2.3410 c3        1 MOL      0.093621
    157 C52        -6.1530   -4.5930    1.2470 c3        1 MOL     -0.084294
    158 C53        -4.6780   -4.8010    0.9610 c         1 MOL      0.742853
    159 O21        -3.8130   -4.8850    1.9030 o         1 MOL     -0.788244
    160 O22        -4.2690   -4.9700   -0.1980 o         1 MOL     -0.788244
    161 H72        -8.5460   -2.3490    0.4610 hn        1 MOL      0.233645
    162 H73        -8.5880   -3.6360    2.1750 h1        1 MOL      0.051635
    163 H74        -6.2180   -4.0350    3.3100 hc        1 MOL      0.024889
    164 H75        -5.6610   -2.7880    2.2920 hc        1 MOL      0.024889
    165 H76        -6.6650   -4.2900    0.3320 hc        1 MOL     -0.006282
    166 H77        -6.5070   -5.5560    1.5970 hc        1 MOL     -0.006282
    167 N15        -9.1150   -1.2950    3.7280 n         1 MOL     -0.354630
    168 C54        -9.1230   -0.2940    4.7590 c3        1 MOL     -0.003174
    169 H78        -8.7020   -0.7120    5.6730 h1        1 MOL      0.052973
    170 H79        -8.5260    0.5610    4.4410 h1        1 MOL      0.052973
    171 H80       -10.1480    0.0270    4.9450 h1        1 MOL      0.052973
    172 H81        -9.7020   -1.2480    2.9090 hn        1 MOL      0.247437
    173 Ca1        -1.7460   -4.4170    0.3740 Ca        1 MOL      1.741758
    174 O23        -1.9780   -7.1760    0.6230 oh        1 MOL     -0.787482
    175 H82        -2.1990   -7.3450    1.5350 ho        1 MOL      0.401241
    176 H83        -2.0660   -8.0210    0.1940 ho        1 MOL      0.401241
    177 O24        -1.3630   -5.2860   -2.1150 oh        1 MOL     -0.787482
    178 H84        -1.9640   -4.8910   -2.7430 ho        1 MOL      0.401241
    179 H85        -1.4920   -6.2280   -2.2290 ho        1 MOL      0.401241
    180 O25        -0.7860   -4.5610    2.9690 oh        1 MOL     -0.787482
    181 H86        -0.7990   -5.4700    3.2730 ho        1 MOL      0.401241
    182 H87        -0.0910   -4.1480    3.4810 ho        1 MOL      0.401241
    183 O26        -2.3650   -2.0570    1.6090 oh        1 MOL     -0.787482
    184 H88        -3.0710   -1.5240    1.9880 ho        1 MOL      0.401241
    185 H89        -1.7410   -1.4240    1.2720 ho        1 MOL      0.401241
@<TRIPOS>BOND
     1    1    2 1   
     2    1    4 1   
     3    1    5 1   
     4    1    6 1   
     5    2    3 2   
     6    2    7 1   
     7    7    8 1   
     8    7   15 1   
     9    8    9 1   
    10    8   11 1   
    11    8   16 1   
    12    9   10 2   
    13    9   19 1   
    14   11   12 1   
    15   11   17 1   
    16   11   18 1   
    17   12   13 1   
    18   12   14 1   
    19   19   20 1   
    20   19   28 1   
    21   20   21 1   
    22   20   23 1   
    23   20   29 1   
    24   21   22 2   
    25   21   41 1   
    26   23   24 1   
    27   23   30 1   
    28   23   31 1   
    29   24   25 1   
    30   24   32 1   
    31   24   33 1   
    32   25   26 1   
    33   25   34 1   
    34   25   35 1   
    35   26   27 1   
    36   26   36 1   
    37   26   37 1   
    38   27   38 1   
    39   27   39 1   
    40   27   40 1   
    41   41   42 1   
    42   41   49 1   
    43   42   43 1   
    44   42   45 1   
    45   42   50 1   
    46   43   44 2   
    47   43   53 1   
    48   45   46 1   
    49   45   51 1   
    50   45   52 1   
    51   46   47 1   
    52   46   48 1   
    53   53   54 1   
    54   53   57 1   
    55   54   55 1   
    56   54   58 1   
    57   54   59 1   
    58   55   56 2   
    59   55   60 1   
    60   60   61 1   
    61   60   68 1   
    62   61   62 1   
    63   61   64 1   
    64   61   69 1   
    65   62   63 2   
    66   62   74 1   
    67   64   65 1   
    68   64   70 1   
    69   64   71 1   
    70   65   66 1   
    71   65   67 2   
    72   66   72 1   
    73   66   73 1   
    74   74   75 1   
    75   74   78 1   
    76   75   76 1   
    77   75   79 1   
    78   75   80 1   
    79   76   77 2   
    80   76   81 1   
    81   81   82 1   
    82   81   93 1   
    83   82   83 1   
    84   82   85 1   
    85   82   94 1   
    86   83   84 2   
    87   83  102 1   
    88   85   86 1   
    89   85   95 1   
    90   85   96 1   
    91   86   87 ar  
    92   86   88 ar  
    93   87   89 ar  
    94   87   97 1   
    95   88   90 ar  
    96   88   98 1   
    97   89   91 ar  
    98   89   99 1   
    99   90   91 ar  
   100   90  100 1   
   101   91   92 1   
   102   92  101 1   
   103  102  103 1   
   104  102  110 1   
   105  103  104 1   
   106  103  106 1   
   107  103  111 1   
   108  104  105 2   
   109  104  121 1   
   110  106  107 1   
   111  106  108 1   
   112  106  112 1   
   113  107  109 1   
   114  107  113 1   
   115  107  114 1   
   116  108  115 1   
   117  108  116 1   
   118  108  117 1   
   119  109  118 1   
   120  109  119 1   
   121  109  120 1   
   122  121  122 1   
   123  121  127 1   
   124  122  123 1   
   125  122  125 1   
   126  122  128 1   
   127  123  124 2   
   128  123  132 1   
   129  125  126 1   
   130  125  129 1   
   131  125  130 1   
   132  126  131 1   
   133  132  133 1   
   134  132  137 1   
   135  133  134 1   
   136  133  136 1   
   137  133  138 1   
   138  134  135 2   
   139  134  142 1   
   140  136  139 1   
   141  136  140 1   
   142  136  141 1   
   143  142  143 1   
   144  142  147 1   
   145  143  144 1   
   146  143  146 1   
   147  143  148 1   
   148  144  145 2   
   149  144  152 1   
   150  146  149 1   
   151  146  150 1   
   152  146  151 1   
   153  152  153 1   
   154  152  161 1   
   155  153  154 1   
   156  153  156 1   
   157  153  162 1   
   158  154  155 2   
   159  154  167 1   
   160  156  157 1   
   161  156  163 1   
   162  156  164 1   
   163  157  158 1   
   164  157  165 1   
   165  157  166 1   
   166  158  159 1   
   167  158  160 1   
   168  167  168 1   
   169  167  172 1   
   170  168  169 1   
   171  168  170 1   
   172  168  171 1   
   173  174  175 1   
   174  174  176 1   
   175  177  178 1   
   176  177  179 1   
   177  180  181 1   
   178  180  182 1   
   179  183  184 1   
   180  183  185 1   
@<TRIPOS>SUBSTRUCTURE
     1 MOL         1 TEMP              0 ****  ****    0 ROOT
