@<TRIPOS>MOLECULE
MOL
  181   177     1     0     0
SMALL
resp


@<TRIPOS>ATOM
      1 C1          7.1090    7.1110   -1.0090 c3        1 MOL     -0.434162
      2 C2          6.7790    6.0160   -0.0340 c         1 MOL      0.744266
      3 O1          6.1210    6.1740    0.9750 o         1 MOL     -0.633003
      4 H1          6.9460    8.0790   -0.5370 hc        1 MOL      0.124397
      5 H2          8.1530    7.0260   -1.3110 hc        1 MOL      0.124397
      6 H3          6.4690    7.0220   -1.8860 hc        1 MOL      0.124397
      7 N1          7.3120    4.8280   -0.1410 n         1 MOL     -0.523051
      8 C3          8.2740    4.3520   -1.1000 c3        1 MOL      0.017123
      9 C4          9.4010    3.4330   -0.4970 c         1 MOL      0.395070
     10 O2         10.3020    3.1480   -1.2650 o         1 MOL     -0.506990
     11 C5          7.5110    3.5550   -2.2190 c3        1 MOL     -0.297601
     12 C6          6.5300    2.6060   -1.5620 c         1 MOL      0.854833
     13 O3          5.2520    2.6740   -1.7020 o         1 MOL     -0.805316
     14 O4          6.9490    1.8330   -0.6420 o         1 MOL     -0.805316
     15 H4          7.0450    4.1340    0.5460 hn        1 MOL      0.310948
     16 H5          8.7560    5.2190   -1.5540 h1        1 MOL      0.120762
     17 H6          8.0820    2.9540   -2.9210 hc        1 MOL      0.097979
     18 H7          6.9590    4.2560   -2.8470 hc        1 MOL      0.097979
     19 N2          9.4430    3.0020    0.7860 n         1 MOL     -0.339231
     20 C7         10.5690    2.3110    1.3080 c3        1 MOL      0.155336
     21 C8         10.6560    0.8100    0.9140 c         1 MOL      0.517400
     22 O5         11.4510    0.0770    1.4870 o         1 MOL     -0.542560
     23 C9         10.5650    2.4750    2.8410 c3        1 MOL     -0.172836
     24 H8          8.6890    3.3230    1.3790 hn        1 MOL      0.261489
     25 H9         11.5350    2.6640    0.9410 h1        1 MOL      0.047755
     26 H10        11.4620    2.0150    3.2670 hc        1 MOL      0.050586
     27 H11        10.5810    3.5350    3.0850 hc        1 MOL      0.050586
     28 H12         9.6780    2.0520    3.3260 hc        1 MOL      0.050586
     29 N3          9.6410    0.3640    0.0940 n         1 MOL     -0.474075
     30 C10         9.4720   -1.0630   -0.1560 c3        1 MOL      0.076153
     31 C11         8.9720   -1.4280   -1.5700 c         1 MOL      0.449240
     32 O6          9.2790   -2.4650   -2.1230 o         1 MOL     -0.518609
     33 C12         8.4120   -1.5070    0.8320 c3        1 MOL      0.014747
     34 C13         7.0110   -0.7650    0.8690 c         1 MOL      0.641189
     35 O7          6.7500    0.1750    1.6560 o         1 MOL     -0.718561
     36 O8          6.1510   -1.0130   -0.0260 o         1 MOL     -0.718561
     37 H13         9.0250    1.1200   -0.1630 hn        1 MOL      0.245726
     38 H14        10.3690   -1.6600   -0.0060 h1        1 MOL      0.087119
     39 H15         8.8170   -1.4360    1.8320 hc        1 MOL      0.006974
     40 H16         8.2380   -2.5750    0.6970 hc        1 MOL      0.006974
     41 N4          8.1120   -0.4800   -2.0330 n         1 MOL     -0.248710
     42 C14         7.4120   -0.4820   -3.3190 c3        1 MOL     -0.188711
     43 C15         6.4520   -1.6470   -3.5690 c         1 MOL      0.635741
     44 O9          6.2500   -1.9960   -4.6720 o         1 MOL     -0.607934
     45 H17         7.7140    0.3030   -1.5310 hn        1 MOL      0.262717
     46 H18         8.1540   -0.5220   -4.1180 h1        1 MOL      0.080416
     47 H19         6.7780    0.3990   -3.2600 h1        1 MOL      0.080416
     48 N5          5.9250   -2.2220   -2.5320 n         1 MOL     -0.331131
     49 C16         5.2160   -3.5170   -2.6420 c3        1 MOL      0.147274
     50 C17         3.9260   -3.7380   -1.7950 c         1 MOL      0.449684
     51 O10         3.3610   -4.8560   -1.7680 o         1 MOL     -0.513441
     52 C18         6.1950   -4.6720   -2.6680 c3        1 MOL     -0.317407
     53 C19         6.7530   -5.1390   -1.3150 c         1 MOL      0.635446
     54 N6          7.9440   -4.7440   -1.0560 n         1 MOL     -0.711898
     55 O11         6.1580   -5.9250   -0.5940 o         1 MOL     -0.571146
     56 H20         6.0090   -1.7830   -1.6310 hn        1 MOL      0.258785
     57 H21         4.6590   -3.5070   -3.5870 h1        1 MOL      0.048736
     58 H22         6.9740   -4.5950   -3.4260 hc        1 MOL      0.103193
     59 H23         5.5490   -5.5230   -2.9110 hc        1 MOL      0.103193
     60 H24         8.4490   -4.1630   -1.7020 hn        1 MOL      0.326637
     61 H25         8.4260   -5.1720   -0.2770 hn        1 MOL      0.326637
     62 N7          3.4900   -2.6610   -1.1590 n         1 MOL     -0.316889
     63 C20         2.1800   -2.7100   -0.4200 c3        1 MOL      0.091099
     64 C21         2.2180   -1.9140    0.9400 c         1 MOL      0.582947
     65 O12         2.8530   -0.8490    0.9540 o         1 MOL     -0.652517
     66 H26         4.0050   -1.7960   -1.0910 hn        1 MOL      0.119990
     67 H27         1.9530   -3.7760   -0.3040 h1        1 MOL      0.064481
     68 H28         1.3890   -2.3460   -1.0650 h1        1 MOL      0.064481
     69 N8          1.5980   -2.4500    2.0400 n         1 MOL     -0.354596
     70 C22         0.6790   -3.6280    2.1640 c3        1 MOL     -0.377252
     71 C23        -0.8420   -3.3390    1.9040 c         1 MOL      0.508909
     72 O13        -1.6730   -4.2230    1.6110 o         1 MOL     -0.503957
     73 C24         0.7620   -4.3160    3.5170 c3        1 MOL      0.334180
     74 C25         2.0550   -5.0420    3.6610 c3        1 MOL     -0.207586
     75 O14         0.6990   -3.4070    4.5580 oh        1 MOL     -0.621423
     76 H29         1.8420   -1.9560    2.8860 hn        1 MOL      0.354635
     77 H30         0.9530   -4.3780    1.4260 h1        1 MOL      0.202081
     78 H31        -0.0510   -5.0380    3.6140 h1        1 MOL      0.041882
     79 H32         0.1100   -3.7640    5.2340 ho        1 MOL      0.425135
     80 H33         2.1270   -5.5320    4.6430 hc        1 MOL      0.056397
     81 H34         2.1610   -5.8320    2.9150 hc        1 MOL      0.056397
     82 H35         2.9280   -4.4030    3.5620 hc        1 MOL      0.056397
     83 N9         -1.2800   -2.0550    2.1000 n         1 MOL     -0.364292
     84 C26        -2.6610   -1.5470    2.0370 c3        1 MOL      0.018346
     85 C27        -2.7360   -0.3770    0.9980 c         1 MOL      0.522850
     86 O15        -1.8880    0.5400    1.0460 o         1 MOL     -0.561363
     87 C28        -3.1910   -1.1160    3.3630 c3        1 MOL      0.022144
     88 C29        -2.8030   -2.1610    4.4260 c3        1 MOL      0.116610
     89 C30        -4.7490   -0.7410    3.2860 c3        1 MOL      0.105540
     90 C31        -3.4300   -1.9300    5.7560 c3        1 MOL     -0.099222
     91 H36        -0.5740   -1.3370    2.2160 hn        1 MOL      0.199153
     92 H37        -3.2870   -2.3770    1.7120 h1        1 MOL      0.116007
     93 H38        -2.6960   -0.1880    3.6760 hc        1 MOL      0.048712
     94 H39        -1.7430   -2.2950    4.6590 hc        1 MOL     -0.037147
     95 H40        -3.1480   -3.1390    4.1080 hc        1 MOL     -0.037147
     96 H41        -5.0540   -0.1360    2.4290 hc        1 MOL     -0.016093
     97 H42        -5.4130   -1.6000    3.2290 hc        1 MOL     -0.016093
     98 H43        -4.9930   -0.1430    4.1670 hc        1 MOL     -0.016093
     99 H44        -3.1480   -0.9630    6.1770 hc        1 MOL      0.003365
    100 H45        -4.5140   -2.0550    5.7910 hc        1 MOL      0.003365
    101 H46        -2.9300   -2.6210    6.4350 hc        1 MOL      0.003365
    102 N10        -3.6410   -0.3650   -0.0020 n         1 MOL     -0.531998
    103 C32        -4.7020   -1.3320   -0.2490 c3        1 MOL      0.251264
    104 C33        -6.0500   -0.7260   -0.7530 c         1 MOL      0.550188
    105 O16        -5.9580    0.3760   -1.2720 o         1 MOL     -0.530997
    106 C34        -4.2450   -2.2400   -1.3980 c3        1 MOL     -0.176990
    107 C35        -5.0630   -3.5190   -1.5740 c         1 MOL      0.737805
    108 O17        -5.0520   -4.1100   -2.6780 o         1 MOL     -0.727973
    109 O18        -5.6180   -3.9190   -0.5440 o         1 MOL     -0.727973
    110 H47        -3.6750    0.4740   -0.5600 hn        1 MOL      0.300260
    111 H48        -4.9110   -1.9300    0.6350 h1        1 MOL     -0.023038
    112 H49        -3.1940   -2.5110   -1.3250 hc        1 MOL      0.008036
    113 H50        -4.3300   -1.6580   -2.3250 hc        1 MOL      0.008036
    114 N11        -7.1480   -1.4150   -0.6020 n         1 MOL     -0.565515
    115 C36        -8.5170   -0.9230   -0.9000 c3        1 MOL      0.533390
    116 C37        -9.2910   -0.5870    0.3750 c         1 MOL      0.213485
    117 O19        -9.4360   -1.5020    1.2300 o         1 MOL     -0.485948
    118 C38        -9.2050   -2.0250   -1.8140 c3        1 MOL     -0.290751
    119 C39       -10.7180   -1.7820   -2.1710 ca        1 MOL      0.176831
    120 C40       -11.7650   -2.4050   -1.3880 ca        1 MOL     -0.203544
    121 C41       -11.0250   -1.1420   -3.3970 ca        1 MOL     -0.203544
    122 C42       -13.0390   -2.2390   -1.8900 ca        1 MOL     -0.039769
    123 C43       -12.3020   -0.9700   -3.7900 ca        1 MOL     -0.039769
    124 C44       -13.3550   -1.5330   -3.0520 ca        1 MOL     -0.211031
    125 H51        -7.0530   -2.3480   -0.2130 hn        1 MOL      0.284476
    126 H52        -8.4100   -0.0210   -1.5040 h1        1 MOL     -0.049614
    127 H53        -9.1130   -3.0230   -1.3960 hc        1 MOL      0.093423
    128 H54        -8.5480   -2.0230   -2.6800 hc        1 MOL      0.093423
    129 H55       -11.5820   -2.9040   -0.4540 ha        1 MOL      0.137851
    130 H56       -10.1710   -0.6950   -3.8850 ha        1 MOL      0.137851
    131 H57       -13.8660   -2.6050   -1.3040 ha        1 MOL      0.077239
    132 H58       -12.4450   -0.4590   -4.7270 ha        1 MOL      0.077239
    133 H59       -14.3820   -1.3340   -3.3070 ha        1 MOL      0.112835
    134 N12       -10.0150    0.6020    0.4470 n         1 MOL      0.003140
    135 C45       -10.3090    1.3890   -0.7260 c3        1 MOL      0.276418
    136 C46        -9.1890    2.4370   -1.0740 c         1 MOL      0.191312
    137 O20        -8.7700    2.5680   -2.2470 o         1 MOL     -0.523797
    138 C47       -11.5470    2.2760   -0.3400 c3        1 MOL     -0.086915
    139 C48       -12.1940    1.4700    0.8380 c3        1 MOL     -0.008485
    140 C49       -11.0370    0.7660    1.5310 c3        1 MOL     -0.265918
    141 H60       -10.6460    0.7660   -1.5380 h1        1 MOL     -0.021028
    142 H61       -11.2460    3.2550    0.0410 hc        1 MOL      0.034252
    143 H62       -12.2710    2.3200   -1.1390 hc        1 MOL      0.034252
    144 H63       -12.7190    2.1870    1.4660 hc        1 MOL      0.015136
    145 H64       -12.8160    0.6910    0.4150 hc        1 MOL      0.015136
    146 H65       -10.6940    1.5130    2.2410 h1        1 MOL      0.125207
    147 H66       -11.4340   -0.1630    1.9240 h1        1 MOL      0.125207
    148 N13        -8.5560    2.9900   -0.0490 n         1 MOL     -0.350864
    149 C50        -7.3350    3.8390   -0.1540 c3        1 MOL      0.368816
    150 C51        -7.7710    5.1850   -0.6970 c         1 MOL      0.370698
    151 O21        -8.2430    5.9420    0.1660 o         1 MOL     -0.593729
    152 C52        -6.6520    3.8350    1.2310 c3        1 MOL     -0.057086
    153 C53        -5.8010    2.5850    1.4910 c3        1 MOL     -0.160540
    154 C54        -5.1460    2.7460    2.9100 c         1 MOL      0.782879
    155 O22        -3.9770    3.0660    3.0650 o         1 MOL     -0.750742
    156 O23        -5.8200    2.4200    3.8940 o         1 MOL     -0.750742
    157 H67        -8.7000    2.5940    0.8740 hn        1 MOL      0.251782
    158 H68        -6.7020    3.4930   -0.9730 h1        1 MOL      0.020504
    159 H69        -7.3530    4.0560    2.0420 hc        1 MOL      0.005921
    160 H70        -5.9260    4.6460    1.0990 hc        1 MOL      0.005921
    161 H71        -5.0370    2.4620    0.7250 hc        1 MOL     -0.013962
    162 H72        -6.5300    1.7770    1.5000 hc        1 MOL     -0.013962
    163 N14        -7.5550    5.5970   -1.9400 n         1 MOL     -0.225837
    164 C55        -6.6530    5.1120   -2.9450 c3        1 MOL     -0.136430
    165 H73        -6.4130    4.0680   -2.7440 h1        1 MOL      0.070325
    166 H74        -7.1240    5.1940   -3.9260 h1        1 MOL      0.070325
    167 H75        -5.7390    5.7050   -2.9300 h1        1 MOL      0.070325
    168 H76        -8.0310    6.4400   -2.2160 hn        1 MOL      0.227570
    169 Ca1         4.6550    1.1090    0.4030 Ca        1 MOL      1.838509
    170 O24         3.9610    0.2080   -2.2990 oh        1 MOL     -0.857431
    171 H77         3.6150   -0.1820   -3.1050 ho        1 MOL      0.426439
    172 H78         3.8680    1.1530   -2.4240 ho        1 MOL      0.426439
    173 O25         4.4700    3.7510    0.7430 oh        1 MOL     -0.857431
    174 H79         4.4920    4.3260   -0.0230 ho        1 MOL      0.426439
    175 H80         4.4630    4.3530    1.4950 ho        1 MOL      0.426439
    176 O26         2.1780    2.0750    0.3270 oh        1 MOL     -0.857431
    177 H81         1.8950    2.9470    0.5770 ho        1 MOL      0.426439
    178 H82         1.4270    1.6870   -0.1310 ho        1 MOL      0.426439
    179 O27         4.1450    1.2070    3.2080 oh        1 MOL     -0.857431
    180 H83         4.3720    2.0300    3.6470 ho        1 MOL      0.426439
    181 H84         3.6300    0.7300    3.8530 ho        1 MOL      0.426439
@<TRIPOS>BOND
     1    1    2 1   
     2    1    4 1   
     3    1    5 1   
     4    1    6 1   
     5    2    3 2   
     6    2    7 1   
     7    7    8 1   
     8    7   15 1   
     9    8    9 1   
    10    8   11 1   
    11    8   16 1   
    12    9   10 2   
    13    9   19 1   
    14   11   12 1   
    15   11   17 1   
    16   11   18 1   
    17   12   13 1   
    18   12   14 1   
    19   19   20 1   
    20   19   24 1   
    21   20   21 1   
    22   20   23 1   
    23   20   25 1   
    24   21   22 2   
    25   21   29 1   
    26   23   26 1   
    27   23   27 1   
    28   23   28 1   
    29   29   30 1   
    30   29   37 1   
    31   30   31 1   
    32   30   33 1   
    33   30   38 1   
    34   31   32 2   
    35   31   41 1   
    36   33   34 1   
    37   33   39 1   
    38   33   40 1   
    39   34   35 1   
    40   34   36 1   
    41   41   42 1   
    42   41   45 1   
    43   42   43 1   
    44   42   46 1   
    45   42   47 1   
    46   43   44 2   
    47   43   48 1   
    48   48   49 1   
    49   48   56 1   
    50   49   50 1   
    51   49   52 1   
    52   49   57 1   
    53   50   51 2   
    54   50   62 1   
    55   52   53 1   
    56   52   58 1   
    57   52   59 1   
    58   53   54 1   
    59   53   55 2   
    60   54   60 1   
    61   54   61 1   
    62   62   63 1   
    63   62   66 1   
    64   63   64 1   
    65   63   67 1   
    66   63   68 1   
    67   64   65 2   
    68   64   69 1   
    69   69   70 1   
    70   69   76 1   
    71   70   71 1   
    72   70   73 1   
    73   70   77 1   
    74   71   72 2   
    75   71   83 1   
    76   73   74 1   
    77   73   75 1   
    78   73   78 1   
    79   74   80 1   
    80   74   81 1   
    81   74   82 1   
    82   75   79 1   
    83   83   84 1   
    84   83   91 1   
    85   84   85 1   
    86   84   87 1   
    87   84   92 1   
    88   85   86 2   
    89   85  102 1   
    90   87   88 1   
    91   87   89 1   
    92   87   93 1   
    93   88   90 1   
    94   88   94 1   
    95   88   95 1   
    96   89   96 1   
    97   89   97 1   
    98   89   98 1   
    99   90   99 1   
   100   90  100 1   
   101   90  101 1   
   102  102  103 1   
   103  102  110 1   
   104  103  104 1   
   105  103  106 1   
   106  103  111 1   
   107  104  105 2   
   108  104  114 1   
   109  106  107 1   
   110  106  112 1   
   111  106  113 1   
   112  107  108 1   
   113  107  109 1   
   114  114  115 1   
   115  114  125 1   
   116  115  116 1   
   117  115  118 1   
   118  115  126 1   
   119  116  117 2   
   120  116  134 1   
   121  118  119 1   
   122  118  127 1   
   123  118  128 1   
   124  119  120 ar  
   125  119  121 ar  
   126  120  122 ar  
   127  120  129 1   
   128  121  123 ar  
   129  121  130 1   
   130  122  124 ar  
   131  122  131 1   
   132  123  124 ar  
   133  123  132 1   
   134  124  133 1   
   135  134  135 1   
   136  134  140 1   
   137  135  136 1   
   138  135  138 1   
   139  135  141 1   
   140  136  137 2   
   141  136  148 1   
   142  138  139 1   
   143  138  142 1   
   144  138  143 1   
   145  139  140 1   
   146  139  144 1   
   147  139  145 1   
   148  140  146 1   
   149  140  147 1   
   150  148  149 1   
   151  148  157 1   
   152  149  150 1   
   153  149  152 1   
   154  149  158 1   
   155  150  151 2   
   156  150  163 1   
   157  152  153 1   
   158  152  159 1   
   159  152  160 1   
   160  153  154 1   
   161  153  161 1   
   162  153  162 1   
   163  154  155 1   
   164  154  156 1   
   165  163  164 1   
   166  163  168 1   
   167  164  165 1   
   168  164  166 1   
   169  164  167 1   
   170  170  171 1   
   171  170  172 1   
   172  173  174 1   
   173  173  175 1   
   174  176  177 1   
   175  176  178 1   
   176  179  180 1   
   177  179  181 1   
@<TRIPOS>SUBSTRUCTURE
     1 MOL         1 TEMP              0 ****  ****    0 ROOT
