@<TRIPOS>MOLECULE
MOL
  186   183     1     0     0
SMALL
resp


@<TRIPOS>ATOM
      1 C1          9.0490   -0.8650    3.0480 c3        1 MOL     -0.387912
      2 C2          8.0410   -0.6550    1.8840 c         1 MOL      0.696989
      3 O1          6.9070   -1.1400    1.9330 o         1 MOL     -0.635649
      4 H1          8.5100   -0.8840    3.9950 hc        1 MOL      0.102702
      5 H2          9.5740   -1.8100    2.9090 hc        1 MOL      0.102702
      6 H3          9.7690   -0.0470    3.0570 hc        1 MOL      0.102702
      7 N1          8.3340    0.1440    0.8300 n         1 MOL     -0.371677
      8 C3          7.4580    0.6620   -0.2340 c3        1 MOL     -0.269081
      9 C4          6.7690   -0.3570   -1.2010 c         1 MOL      0.627516
     10 O2          6.2400   -0.0940   -2.2700 o         1 MOL     -0.445036
     11 C5          8.1740    1.7160   -1.0430 c3        1 MOL     -0.170703
     12 C6          9.3570    1.1480   -1.9100 c         1 MOL      0.674952
     13 O3         10.1030    0.2260   -1.4720 o         1 MOL     -0.632249
     14 O4          9.5690    1.6870   -3.0190 o         1 MOL     -0.632249
     15 H4          9.3220    0.2840    0.6620 hn        1 MOL      0.225517
     16 H5          6.6610    1.1950    0.2720 h1        1 MOL      0.169422
     17 H6          8.6040    2.4850   -0.4060 hc        1 MOL      0.079792
     18 H7          7.4660    2.2210   -1.6970 hc        1 MOL      0.079792
     19 N2          6.7870   -1.6310   -0.7250 n         1 MOL     -0.326917
     20 C7          6.2260   -2.7710   -1.4970 c3        1 MOL      0.008317
     21 C8          4.7900   -2.6240   -2.1020 c         1 MOL      0.459668
     22 O5          4.5980   -3.1950   -3.1970 o         1 MOL     -0.569578
     23 C9          6.2810   -3.9480   -0.6240 c3        1 MOL     -0.130674
     24 C10         7.6610   -4.2380   -0.0260 c3        1 MOL      0.114342
     25 C11         7.8030   -5.7570    0.3130 c3        1 MOL     -0.274329
     26 C12         9.1440   -5.9300    1.0200 c3        1 MOL      0.201854
     27 N3          9.3850   -7.2470    1.5530 n4        1 MOL     -0.342549
     28 H8          7.0310   -1.8090    0.2320 hn        1 MOL      0.074420
     29 H9          6.8110   -2.9210   -2.4040 h1        1 MOL      0.090194
     30 H10         5.9520   -4.8740   -1.0860 hc        1 MOL      0.061680
     31 H11         5.5350   -3.7680    0.1590 hc        1 MOL      0.061680
     32 H12         7.6790   -3.8030    0.9810 hc        1 MOL      0.031521
     33 H13         8.5370   -3.7480   -0.4630 hc        1 MOL      0.031521
     34 H14         7.7380   -6.3400   -0.6070 hc        1 MOL      0.084041
     35 H15         6.9340   -5.9550    0.9410 hc        1 MOL      0.084041
     36 H16         9.2140   -5.1610    1.7850 hx        1 MOL      0.044246
     37 H17         9.9730   -5.6980    0.3560 hx        1 MOL      0.044246
     38 H18         8.7360   -7.3940    2.3080 hn        1 MOL      0.307604
     39 H19         9.1390   -7.9240    0.8470 hn        1 MOL      0.307604
     40 H20        10.3240   -7.4470    1.8680 hn        1 MOL      0.307604
     41 N4          3.8100   -1.9340   -1.5630 n         1 MOL     -0.155518
     42 C13         3.6660   -1.3140   -0.2320 c3        1 MOL     -0.716934
     43 C14         3.4170    0.2410   -0.2440 c         1 MOL      0.583401
     44 O6          2.9570    0.7660   -1.2890 o         1 MOL     -0.456148
     45 C15         2.5040   -2.0900    0.4830 c3        1 MOL     -0.040121
     46 C16         1.2340   -2.2900   -0.3510 c         1 MOL      0.701601
     47 O7          1.0900   -1.4610   -1.2650 o         1 MOL     -0.660042
     48 O8          0.3730   -3.1470   -0.1090 o         1 MOL     -0.660042
     49 H21         2.9630   -1.8140   -2.1080 hn        1 MOL      0.300365
     50 H22         4.5790   -1.4950    0.3310 h1        1 MOL      0.342461
     51 H23         2.3090   -1.6210    1.4440 hc        1 MOL      0.056734
     52 H24         2.9350   -3.0090    0.8860 hc        1 MOL      0.056734
     53 N5          3.7590    0.9670    0.8850 n         1 MOL     -0.343231
     54 C17         3.6780    2.4300    1.1480 c3        1 MOL     -0.083236
     55 C18         2.4270    3.1190    0.6350 c         1 MOL      0.611888
     56 O9          1.3840    2.4990    0.4080 o         1 MOL     -0.502540
     57 H25         4.2930    0.4280    1.5590 hn        1 MOL      0.282455
     58 H26         4.5620    2.7870    0.6100 h1        1 MOL      0.060435
     59 H27         3.6670    2.6060    2.2280 h1        1 MOL      0.060435
     60 N6          2.4320    4.4430    0.4560 n         1 MOL     -0.514166
     61 C19         1.3410    5.1610   -0.2090 c3        1 MOL      0.520349
     62 C20         1.1260    6.5230    0.4410 c         1 MOL      0.409858
     63 O10         2.0860    7.1400    0.8570 o         1 MOL     -0.524804
     64 C21         1.6880    5.3490   -1.6470 c3        1 MOL     -0.430716
     65 C22         1.7990    4.0740   -2.4230 c         1 MOL      0.700990
     66 O11         2.6110    3.8660   -3.3310 o         1 MOL     -0.665907
     67 O12         0.9180    3.2090   -2.1770 o         1 MOL     -0.665907
     68 H28         3.2990    4.9260    0.6690 hn        1 MOL      0.267947
     69 H29         0.3760    4.6450   -0.1510 h1        1 MOL     -0.143495
     70 H30         2.5990    5.9550   -1.7330 hc        1 MOL      0.113858
     71 H31         0.9040    5.9780   -2.0650 hc        1 MOL      0.113858
     72 N7         -0.1360    7.1420    0.5330 n         1 MOL     -0.474534
     73 C23        -1.3940    6.5190    0.1660 c3        1 MOL     -0.037533
     74 C24        -1.7930    5.3120    1.0700 c         1 MOL      0.592206
     75 O13        -1.3020    5.2400    2.1770 o         1 MOL     -0.496161
     76 H32        -0.1870    8.0590    0.9390 hn        1 MOL      0.330761
     77 H33        -1.2920    6.0510   -0.8160 h1        1 MOL      0.061841
     78 H34        -2.2060    7.2360    0.2070 h1        1 MOL      0.061841
     79 N8         -2.6770    4.4420    0.5470 n         1 MOL     -0.539919
     80 C25        -3.1100    3.2630    1.2810 c3        1 MOL      0.089817
     81 C26        -1.9140    2.2580    1.6560 c         1 MOL      0.663999
     82 O14        -1.1260    2.0040    0.7630 o         1 MOL     -0.546352
     83 C27        -4.3070    2.4670    0.6820 c3        1 MOL      0.482936
     84 C28        -4.1880    2.2090   -0.7750 c3        1 MOL     -0.214817
     85 O15        -5.5500    3.0550    0.8940 oh        1 MOL     -0.654077
     86 H35        -3.0800    4.6130   -0.3680 hn        1 MOL      0.322658
     87 H36        -3.5850    3.5880    2.2110 h1        1 MOL      0.022039
     88 H37        -4.3850    1.5040    1.2010 h1        1 MOL     -0.144058
     89 H38        -6.1100    2.3830    0.4970 ho        1 MOL      0.369251
     90 H39        -4.1350    3.1550   -1.3280 hc        1 MOL      0.030603
     91 H40        -3.2610    1.6720   -0.9630 hc        1 MOL      0.030603
     92 H41        -4.9490    1.5350   -1.1580 hc        1 MOL      0.030603
     93 N9         -1.7930    1.7850    2.9050 n         1 MOL     -0.687873
     94 C29        -0.8030    0.7560    3.3630 c3        1 MOL      0.088909
     95 C30        -0.8050   -0.3800    2.4180 c         1 MOL      0.494772
     96 O16        -0.0150   -0.4400    1.4410 o         1 MOL     -0.545096
     97 C31         0.6030    1.3610    3.7070 c3        1 MOL      0.152660
     98 C32         0.5220    2.4730    4.7630 c3        1 MOL      0.092024
     99 C33         1.5620    0.2450    4.1410 c3        1 MOL     -0.484365
    100 C34         1.8660    3.2040    5.0600 c3        1 MOL     -0.297114
    101 H42        -2.5100    2.0790    3.5490 hn        1 MOL      0.306846
    102 H43        -1.1450    0.3620    4.3240 h1        1 MOL      0.025099
    103 H44         1.0040    1.7950    2.7910 hc        1 MOL      0.054425
    104 H45         0.1100    2.0370    5.6710 hc        1 MOL     -0.008416
    105 H46        -0.0770    3.2960    4.3850 hc        1 MOL     -0.008416
    106 H47         1.0930   -0.2170    5.0100 hc        1 MOL      0.114825
    107 H48         1.6540   -0.5020    3.3500 hc        1 MOL      0.114825
    108 H49         2.4890    0.6690    4.5290 hc        1 MOL      0.114825
    109 H50         2.6010    2.8970    4.3020 hc        1 MOL      0.079932
    110 H51         1.6670    4.2640    4.9240 hc        1 MOL      0.079932
    111 H52         2.1730    2.9970    6.0790 hc        1 MOL      0.079932
    112 N10        -1.7710   -1.2190    2.6990 n         1 MOL     -0.212661
    113 C35        -2.1040   -2.4300    1.9600 c3        1 MOL     -0.282712
    114 C36        -3.5600   -2.5940    1.6910 c         1 MOL      0.405733
    115 O17        -4.0130   -3.3580    0.8050 o         1 MOL     -0.561576
    116 C37        -1.5320   -3.7300    2.5630 c3        1 MOL      0.433615
    117 C38        -1.8640   -3.8210    4.0560 c3        1 MOL     -0.312992
    118 O18        -0.1290   -3.6890    2.4120 oh        1 MOL     -0.610778
    119 H53        -2.2430   -1.1250    3.5860 hn        1 MOL      0.226622
    120 H54        -1.6950   -2.5240    0.9450 h1        1 MOL      0.208620
    121 H55        -1.7760   -4.6520    2.0270 h1        1 MOL      0.006725
    122 H56         0.0000   -3.5320    1.4780 ho        1 MOL      0.332008
    123 H57        -1.3680   -3.0260    4.6160 hc        1 MOL      0.070325
    124 H58        -2.9390   -3.7810    4.1760 hc        1 MOL      0.070325
    125 H59        -1.4930   -4.7580    4.4920 hc        1 MOL      0.070325
    126 N11        -4.3820   -1.6530    2.2370 n         1 MOL     -0.229457
    127 C39        -5.8790   -1.7060    2.0580 c3        1 MOL      0.183425
    128 C40        -6.3830   -1.3030    0.6760 c         1 MOL      0.492291
    129 O19        -6.2570   -0.1140    0.3100 o         1 MOL     -0.447584
    130 C41        -6.5340   -0.7750    3.0970 c3        1 MOL      0.206477
    131 C42        -8.0820   -0.8300    3.1230 c3        1 MOL     -0.559286
    132 O20        -6.2540   -1.0570    4.4420 oh        1 MOL     -0.625442
    133 H60        -3.9820   -0.9690    2.8590 hn        1 MOL      0.224050
    134 H61        -6.2010   -2.7210    2.2870 h1        1 MOL      0.050164
    135 H62        -6.1560    0.2170    2.8360 h1        1 MOL      0.033760
    136 H63        -6.8680   -0.4610    4.8880 ho        1 MOL      0.421061
    137 H64        -8.4130   -1.8180    3.4500 hc        1 MOL      0.156475
    138 H65        -8.5310   -0.0360    3.7250 hc        1 MOL      0.156475
    139 H66        -8.4880   -0.7140    2.1200 hc        1 MOL      0.156475
    140 N12        -6.9360   -2.1930   -0.1640 n         1 MOL     -0.683447
    141 C43        -7.2710   -1.9330   -1.5280 c3        1 MOL      0.323063
    142 C44        -6.0940   -1.3260   -2.3240 c         1 MOL      0.394034
    143 O21        -6.2280   -0.3260   -2.9940 o         1 MOL     -0.504450
    144 C45        -8.5690   -1.2130   -1.7190 c3        1 MOL     -0.255420
    145 C46        -9.6640   -2.0970   -1.0360 c3        1 MOL      0.183127
    146 C47       -11.0030   -1.6670   -1.4570 c3        1 MOL     -0.155654
    147 C48       -12.1550   -2.3280   -0.6600 c3        1 MOL      0.022639
    148 N13       -12.4020   -3.7970   -1.0690 n4        1 MOL     -0.306160
    149 H67        -7.0410   -3.1470    0.1570 hn        1 MOL      0.298410
    150 H68        -7.4250   -2.9010   -2.0200 h1        1 MOL      0.018553
    151 H69        -8.6850   -1.0550   -2.7900 hc        1 MOL      0.116366
    152 H70        -8.5380   -0.2170   -1.2720 hc        1 MOL      0.116366
    153 H71        -9.6290   -2.0790    0.0500 hc        1 MOL     -0.037790
    154 H72        -9.6140   -3.0890   -1.4840 hc        1 MOL     -0.037790
    155 H73       -11.0590   -1.8080   -2.5390 hc        1 MOL      0.069112
    156 H74       -11.0500   -0.6210   -1.1490 hc        1 MOL      0.069112
    157 H75       -13.1070   -1.8040   -0.7160 hx        1 MOL      0.091779
    158 H76       -11.8070   -2.2540    0.3730 hx        1 MOL      0.091779
    159 H77       -12.7940   -3.8070   -1.9980 hn        1 MOL      0.238796
    160 H78       -11.5820   -4.3610   -1.1940 hn        1 MOL      0.238796
    161 H79       -12.8600   -4.3200   -0.3410 hn        1 MOL      0.238796
    162 N14        -4.8410   -1.7930   -2.1320 n         1 MOL     -0.650139
    163 C49        -3.6950   -0.9910   -2.6130 c3        1 MOL      0.448107
    164 C50        -2.4130   -1.4370   -1.8150 c         1 MOL      0.144918
    165 O22        -1.7850   -0.6120   -1.1850 o         1 MOL     -0.450215
    166 C51        -3.3990   -1.2360   -4.1260 c3        1 MOL     -0.626854
    167 C52        -2.3030   -0.2470   -4.6920 c3        1 MOL     -0.019395
    168 C53        -2.2320    1.2280   -4.2320 c         1 MOL      0.501781
    169 O23        -1.8070    1.4400   -3.0580 o         1 MOL     -0.595628
    170 O24        -2.5360    2.1560   -5.0180 o         1 MOL     -0.595628
    171 H80        -4.7550   -2.6020   -1.5400 hn        1 MOL      0.401093
    172 H81        -3.8200    0.0680   -2.3920 h1        1 MOL      0.203364
    173 H82        -4.3170   -0.8930   -4.5960 hc        1 MOL      0.185355
    174 H83        -3.2530   -2.2620   -4.4830 hc        1 MOL      0.185355
    175 H84        -2.5600   -0.2080   -5.7450 hc        1 MOL      0.048022
    176 H85        -1.3320   -0.7270   -4.5880 hc        1 MOL      0.048022
    177 N15        -1.9440   -2.6920   -1.7120 n         1 MOL     -0.195264
    178 C54        -2.2640   -3.8630   -2.5670 c3        1 MOL     -0.206392
    179 H86        -1.8560   -3.7050   -3.5660 h1        1 MOL      0.089029
    180 H87        -1.8230   -4.7620   -2.1340 h1        1 MOL      0.089029
    181 H88        -3.3450   -3.9820   -2.6320 h1        1 MOL      0.089029
    182 H89        -1.1790   -2.7420   -1.0510 hn        1 MOL      0.314927
    183 Ca1         0.1540    0.9090   -1.2980 Ca        1 MOL      1.663848
    184 O25         1.2650    1.0360   -3.8760 oh        1 MOL     -0.878576
    185 H90         1.9880    0.8490   -4.4670 ho        1 MOL      0.427835
    186 H91         1.2360    1.9910   -3.8170 ho        1 MOL      0.427835
@<TRIPOS>BOND
     1    1    2 1   
     2    1    4 1   
     3    1    5 1   
     4    1    6 1   
     5    2    3 2   
     6    2    7 1   
     7    7    8 1   
     8    7   15 1   
     9    8    9 1   
    10    8   11 1   
    11    8   16 1   
    12    9   10 2   
    13    9   19 1   
    14   11   12 1   
    15   11   17 1   
    16   11   18 1   
    17   12   13 1   
    18   12   14 1   
    19   19   20 1   
    20   19   28 1   
    21   20   21 1   
    22   20   23 1   
    23   20   29 1   
    24   21   22 2   
    25   21   41 1   
    26   23   24 1   
    27   23   30 1   
    28   23   31 1   
    29   24   25 1   
    30   24   32 1   
    31   24   33 1   
    32   25   26 1   
    33   25   34 1   
    34   25   35 1   
    35   26   27 1   
    36   26   36 1   
    37   26   37 1   
    38   27   38 1   
    39   27   39 1   
    40   27   40 1   
    41   41   42 1   
    42   41   49 1   
    43   42   43 1   
    44   42   45 1   
    45   42   50 1   
    46   43   44 2   
    47   43   53 1   
    48   45   46 1   
    49   45   51 1   
    50   45   52 1   
    51   46   47 1   
    52   46   48 1   
    53   53   54 1   
    54   53   57 1   
    55   54   55 1   
    56   54   58 1   
    57   54   59 1   
    58   55   56 2   
    59   55   60 1   
    60   60   61 1   
    61   60   68 1   
    62   61   62 1   
    63   61   64 1   
    64   61   69 1   
    65   62   63 2   
    66   62   72 1   
    67   64   65 1   
    68   64   70 1   
    69   64   71 1   
    70   65   66 1   
    71   65   67 1   
    72   72   73 1   
    73   72   76 1   
    74   73   74 1   
    75   73   77 1   
    76   73   78 1   
    77   74   75 2   
    78   74   79 1   
    79   79   80 1   
    80   79   86 1   
    81   80   81 1   
    82   80   83 1   
    83   80   87 1   
    84   81   82 2   
    85   81   93 1   
    86   83   84 1   
    87   83   85 1   
    88   83   88 1   
    89   84   90 1   
    90   84   91 1   
    91   84   92 1   
    92   85   89 1   
    93   93   94 1   
    94   93  101 1   
    95   94   95 1   
    96   94   97 1   
    97   94  102 1   
    98   95   96 2   
    99   95  112 1   
   100   97   98 1   
   101   97   99 1   
   102   97  103 1   
   103   98  100 1   
   104   98  104 1   
   105   98  105 1   
   106   99  106 1   
   107   99  107 1   
   108   99  108 1   
   109  100  109 1   
   110  100  110 1   
   111  100  111 1   
   112  112  113 1   
   113  112  119 1   
   114  113  114 1   
   115  113  116 1   
   116  113  120 1   
   117  114  115 2   
   118  114  126 1   
   119  116  117 1   
   120  116  118 1   
   121  116  121 1   
   122  117  123 1   
   123  117  124 1   
   124  117  125 1   
   125  118  122 1   
   126  126  127 1   
   127  126  133 1   
   128  127  128 1   
   129  127  130 1   
   130  127  134 1   
   131  128  129 2   
   132  128  140 1   
   133  130  131 1   
   134  130  132 1   
   135  130  135 1   
   136  131  137 1   
   137  131  138 1   
   138  131  139 1   
   139  132  136 1   
   140  140  141 1   
   141  140  149 1   
   142  141  142 1   
   143  141  144 1   
   144  141  150 1   
   145  142  143 2   
   146  142  162 1   
   147  144  145 1   
   148  144  151 1   
   149  144  152 1   
   150  145  146 1   
   151  145  153 1   
   152  145  154 1   
   153  146  147 1   
   154  146  155 1   
   155  146  156 1   
   156  147  148 1   
   157  147  157 1   
   158  147  158 1   
   159  148  159 1   
   160  148  160 1   
   161  148  161 1   
   162  162  163 1   
   163  162  171 1   
   164  163  164 1   
   165  163  166 1   
   166  163  172 1   
   167  164  165 2   
   168  164  177 1   
   169  166  167 1   
   170  166  173 1   
   171  166  174 1   
   172  167  168 1   
   173  167  175 1   
   174  167  176 1   
   175  168  169 1   
   176  168  170 1   
   177  177  178 1   
   178  177  182 1   
   179  178  179 1   
   180  178  180 1   
   181  178  181 1   
   182  184  185 1   
   183  184  186 1   
@<TRIPOS>SUBSTRUCTURE
     1 MOL         1 TEMP              0 ****  ****    0 ROOT
