@<TRIPOS>MOLECULE
MOL
  181   177     1     0     0
SMALL
resp


@<TRIPOS>ATOM
      1 C1          4.7340   -2.1290    4.8580 c3        1 MOL     -0.462322
      2 C2          5.9490   -1.6730    4.0550 c         1 MOL      0.772578
      3 O1          6.1050   -0.4990    3.7580 o         1 MOL     -0.617665
      4 H1          5.0450   -2.8670    5.5980 hc        1 MOL      0.110128
      5 H2          4.2890   -1.2720    5.3630 hc        1 MOL      0.110128
      6 H3          4.0010   -2.5760    4.1870 hc        1 MOL      0.110128
      7 N1          6.8450   -2.5630    3.7970 n         1 MOL     -0.545504
      8 C3          8.0990   -2.3310    3.0020 c3        1 MOL      0.091164
      9 C4          7.7060   -2.5070    1.5420 c         1 MOL      0.595202
     10 O2          7.0380   -3.4380    1.1080 o         1 MOL     -0.580528
     11 C5          9.2600   -3.2860    3.4020 c3        1 MOL     -0.235301
     12 C6         10.6300   -2.8760    2.8830 c         1 MOL      0.759232
     13 O3         11.5180   -3.6570    3.0740 o         1 MOL     -0.734807
     14 O4         10.8880   -1.8160    2.2550 o         1 MOL     -0.734807
     15 H4          6.7350   -3.4940    4.1870 hn        1 MOL      0.287197
     16 H5          8.3670   -1.2960    3.2030 h1        1 MOL      0.059023
     17 H6          9.1170   -4.3260    3.0990 hc        1 MOL      0.042029
     18 H7          9.3510   -3.3370    4.4950 hc        1 MOL      0.042029
     19 N2          8.2070   -1.6130    0.6940 n         1 MOL     -0.404915
     20 C7          8.0970   -1.6010   -0.7450 c3        1 MOL      0.127391
     21 C8          6.6700   -1.3930   -1.2130 c         1 MOL      0.652296
     22 O5          6.0720   -0.4100   -0.7350 o         1 MOL     -0.567945
     23 C9          9.0060   -0.4300   -1.1430 c3        1 MOL     -0.181012
     24 H8          8.7700   -0.8500    1.0450 hn        1 MOL      0.229810
     25 H9          8.5560   -2.4380   -1.2720 h1        1 MOL      0.039606
     26 H10         8.3790    0.4530   -1.0950 hc        1 MOL      0.048627
     27 H11         9.7970   -0.3460   -0.3870 hc        1 MOL      0.048627
     28 H12         9.5070   -0.4560   -2.1150 hc        1 MOL      0.048627
     29 N3          6.1610   -2.1700   -2.2200 n         1 MOL     -0.811399
     30 C10         4.7830   -1.9050   -2.7120 c3        1 MOL      0.809915
     31 C11         4.6130   -0.6920   -3.6720 c         1 MOL      0.356040
     32 O6          4.1200   -0.7630   -4.7990 o         1 MOL     -0.540569
     33 C12         4.3080   -3.2300   -3.2740 c3        1 MOL     -0.404384
     34 C13         2.7790   -3.3890   -3.1370 c         1 MOL      0.773873
     35 O7          2.0650   -2.5300   -2.6330 o         1 MOL     -0.762736
     36 O8          2.2400   -4.4580   -3.4890 o         1 MOL     -0.762736
     37 H13         6.7690   -2.8890   -2.5800 hn        1 MOL      0.313911
     38 H14         4.2230   -1.6570   -1.8080 h1        1 MOL     -0.040077
     39 H15         4.6140   -4.1080   -2.7060 hc        1 MOL      0.069826
     40 H16         4.6510   -3.3400   -4.3010 hc        1 MOL      0.069826
     41 N4          5.1190    0.4490   -3.2380 n         1 MOL     -0.485777
     42 C14         5.3110    1.6390   -4.0190 c3        1 MOL      0.022533
     43 C15         4.0960    2.6050   -4.0730 c         1 MOL      0.592209
     44 O9          4.3320    3.6780   -4.5780 o         1 MOL     -0.616011
     45 H17         5.6040    0.5040   -2.3580 hn        1 MOL      0.287792
     46 H18         5.5860    1.4480   -5.0500 h1        1 MOL      0.062964
     47 H19         6.1190    2.2450   -3.6240 h1        1 MOL      0.062964
     48 N5          2.8530    2.3470   -3.5380 n         1 MOL     -0.348762
     49 C16         1.8060    3.3640   -3.5510 c3        1 MOL      0.106571
     50 C17         1.9840    4.4140   -2.3960 c         1 MOL      0.481130
     51 O10         2.3620    3.9850   -1.2760 o         1 MOL     -0.487635
     52 C18         0.4120    2.7780   -3.5680 c3        1 MOL     -0.313946
     53 C19        -0.7000    3.7710   -3.3750 c         1 MOL      0.593189
     54 N6         -1.0700    4.0780   -2.1160 n         1 MOL     -0.701014
     55 O11        -1.1510    4.5280   -4.2540 o         1 MOL     -0.585710
     56 H20         2.6920    1.4770   -3.0570 hn        1 MOL      0.228152
     57 H21         1.9170    3.8030   -4.5420 h1        1 MOL      0.061125
     58 H22         0.2700    2.0110   -2.8100 hc        1 MOL      0.116254
     59 H23         0.2440    2.2950   -4.5340 hc        1 MOL      0.116254
     60 H24        -0.6080    3.5830   -1.3630 hn        1 MOL      0.341901
     61 H25        -1.4280    5.0070   -1.9770 hn        1 MOL      0.341901
     62 N7          1.8140    5.7640   -2.6860 n         1 MOL     -0.358330
     63 C20         2.0670    6.7760   -1.6040 c3        1 MOL     -0.210171
     64 C21         0.9470    6.6980   -0.5190 c         1 MOL      0.583060
     65 O12        -0.2590    6.5300   -0.8410 o         1 MOL     -0.496712
     66 H26         1.4350    6.0270   -3.5850 hn        1 MOL      0.290814
     67 H27         2.0370    7.7670   -2.0430 h1        1 MOL      0.120674
     68 H28         3.0470    6.5300   -1.2120 h1        1 MOL      0.120674
     69 N8          1.2680    6.9370    0.7500 n         1 MOL     -0.400549
     70 C22         0.2620    7.3600    1.8090 c3        1 MOL     -0.219076
     71 C23        -0.6430    6.2270    2.3240 c         1 MOL      0.394871
     72 O13        -1.7520    6.4360    2.8840 o         1 MOL     -0.542737
     73 C24         0.9910    7.9760    3.0010 c3        1 MOL      0.501975
     74 C25         1.7550    7.1430    3.9610 c3        1 MOL     -0.267489
     75 O14         1.8150    9.0680    2.5150 oh        1 MOL     -0.646913
     76 H29         2.2410    7.1240    0.9560 hn        1 MOL      0.253221
     77 H30        -0.3490    8.1920    1.4820 h1        1 MOL      0.165145
     78 H31         0.2170    8.4560    3.6030 h1        1 MOL      0.019000
     79 H32         2.6680    8.6730    2.3240 ho        1 MOL      0.374896
     80 H33         2.4200    6.4990    3.3880 hc        1 MOL      0.055178
     81 H34         2.3640    7.7420    4.6400 hc        1 MOL      0.055178
     82 H35         1.0540    6.5360    4.5360 hc        1 MOL      0.055178
     83 N9         -0.2600    4.9470    2.1120 n         1 MOL     -0.066015
     84 C26        -1.0530    3.7390    2.2780 c3        1 MOL     -0.112187
     85 C27        -0.9700    2.7600    1.1290 c         1 MOL      0.590269
     86 O15        -0.0630    2.7860    0.3380 o         1 MOL     -0.460046
     87 C28        -0.6950    3.0940    3.5750 c3        1 MOL      0.021154
     88 C29         0.7570    2.5120    3.5230 c3        1 MOL     -0.215431
     89 C30        -0.9160    3.9740    4.8140 c3        1 MOL     -0.338621
     90 C31         0.8310    1.2060    4.3250 c3        1 MOL     -0.215597
     91 H36         0.6350    4.8500    1.6500 hn        1 MOL      0.110453
     92 H37        -2.0740    4.1090    2.3050 h1        1 MOL      0.109511
     93 H38        -1.4480    2.3070    3.6890 hc        1 MOL      0.030337
     94 H39         1.4690    3.2760    3.8410 hc        1 MOL      0.138717
     95 H40         1.0770    2.1860    2.5420 hc        1 MOL      0.138717
     96 H41        -1.9160    4.4240    4.8060 hc        1 MOL      0.098611
     97 H42        -0.8310    3.4330    5.7530 hc        1 MOL      0.098611
     98 H43        -0.2170    4.8020    4.8670 hc        1 MOL      0.098611
     99 H44         0.2910    1.4210    5.2470 hc        1 MOL      0.071218
    100 H45         0.2600    0.5640    3.6520 hc        1 MOL      0.071218
    101 H46         1.8510    0.8410    4.4510 hc        1 MOL      0.071218
    102 N10        -1.9600    1.9060    0.9610 n         1 MOL     -0.722593
    103 C32        -1.8440    0.7610    0.0430 c3        1 MOL      0.320581
    104 C33        -3.2730    0.2970   -0.4100 c         1 MOL      0.740224
    105 O16        -3.3990   -0.6440   -1.1900 o         1 MOL     -0.647418
    106 C34        -1.0870   -0.3870    0.6260 c3        1 MOL      0.032804
    107 C35        -0.7340   -1.4540   -0.3810 c         1 MOL      0.707707
    108 O17        -0.6350   -1.2060   -1.5950 o         1 MOL     -0.693942
    109 O18        -0.3690   -2.5850    0.0900 o         1 MOL     -0.693942
    110 H47        -2.6600    1.8300    1.6870 hn        1 MOL      0.314127
    111 H48        -1.3450    1.1200   -0.8650 h1        1 MOL     -0.067943
    112 H49        -1.7740   -0.9510    1.2580 hc        1 MOL     -0.025750
    113 H50        -0.1720   -0.0110    1.0990 hc        1 MOL     -0.025750
    114 N11        -4.3470    0.9080    0.1080 n         1 MOL     -0.721358
    115 C36        -5.7110    0.5090   -0.2570 c3        1 MOL      0.444383
    116 C37        -6.2180   -0.6500    0.6390 c         1 MOL      0.298080
    117 O19        -6.0570   -0.5600    1.8570 o         1 MOL     -0.506156
    118 C38        -6.5150    1.7980   -0.0570 c3        1 MOL     -0.245948
    119 C39        -7.8340    1.8250   -0.8320 ca        1 MOL      0.146478
    120 C40        -7.8900    2.3330   -2.1000 ca        1 MOL     -0.182040
    121 C41        -8.9370    1.2520   -0.2070 ca        1 MOL     -0.182040
    122 C42        -9.0540    2.3680   -2.7900 ca        1 MOL     -0.091502
    123 C43       -10.0950    1.1770   -0.9790 ca        1 MOL     -0.091502
    124 C44       -10.1630    1.6800   -2.2860 ca        1 MOL     -0.155597
    125 H51        -4.1390    1.4890    0.9120 hn        1 MOL      0.319441
    126 H52        -5.8380    0.1450   -1.2800 h1        1 MOL     -0.003626
    127 H53        -5.8220    2.5910   -0.3450 hc        1 MOL      0.087757
    128 H54        -6.7520    1.9200    1.0000 hc        1 MOL      0.087757
    129 H55        -7.0950    2.9090   -2.5680 ha        1 MOL      0.132097
    130 H56        -8.8830    0.7520    0.7480 ha        1 MOL      0.132097
    131 H57        -9.1970    2.7090   -3.8120 ha        1 MOL      0.105754
    132 H58       -10.9160    0.5790   -0.6280 ha        1 MOL      0.105754
    133 H59       -11.1080    1.6760   -2.8150 ha        1 MOL      0.108164
    134 N12        -7.0750   -1.5510    0.1280 n         1 MOL     -0.080719
    135 C45        -7.8670   -2.5450    0.9000 c3        1 MOL      0.068925
    136 C46        -7.1150   -3.3260    1.9660 c         1 MOL      0.237452
    137 O20        -7.7000   -3.4090    3.0280 o         1 MOL     -0.476142
    138 C47        -8.5930   -3.4800   -0.0810 c3        1 MOL      0.261414
    139 C48        -8.8250   -2.5670   -1.2300 c3        1 MOL      0.036935
    140 C49        -7.5010   -1.6900   -1.2600 c3        1 MOL     -0.419600
    141 H60        -8.6720   -2.0080    1.4000 h1        1 MOL      0.045524
    142 H61        -7.9930   -4.3720   -0.3060 hc        1 MOL     -0.071282
    143 H62        -9.5640   -3.8370    0.2550 hc        1 MOL     -0.071282
    144 H63        -8.9160   -3.1020   -2.1760 hc        1 MOL      0.019764
    145 H64        -9.7160   -1.9980   -0.9730 hc        1 MOL      0.019764
    146 H65        -6.7340   -2.2310   -1.8130 h1        1 MOL      0.141722
    147 H66        -7.6720   -0.7020   -1.6770 h1        1 MOL      0.141722
    148 N13        -5.8930   -3.8310    1.6080 n         1 MOL     -0.062402
    149 C50        -5.1810   -4.6990    2.5300 c3        1 MOL     -0.307247
    150 C51        -4.6700   -3.8870    3.6790 c         1 MOL      0.608087
    151 O21        -4.4910   -4.4820    4.7210 o         1 MOL     -0.579186
    152 C52        -4.0800   -5.4460    1.7340 c3        1 MOL      0.147846
    153 C53        -2.9410   -4.4900    1.4410 c3        1 MOL     -0.151245
    154 C54        -1.9450   -5.0260    0.4390 c         1 MOL      0.674749
    155 O22        -2.1420   -4.6330   -0.7540 o         1 MOL     -0.733003
    156 O23        -1.0340   -5.8050    0.7900 o         1 MOL     -0.733003
    157 H67        -5.4450   -3.6400    0.7130 hn        1 MOL      0.210981
    158 H68        -5.8790   -5.4070    2.9870 h1        1 MOL      0.142703
    159 H69        -4.4660   -5.7470    0.7530 hc        1 MOL     -0.013074
    160 H70        -3.7750   -6.2880    2.3450 hc        1 MOL     -0.013074
    161 H71        -2.4510   -4.4060    2.4080 hc        1 MOL      0.037146
    162 H72        -3.3380   -3.5070    1.1700 hc        1 MOL      0.037146
    163 N14        -4.4660   -2.5720    3.7240 n         1 MOL     -0.275299
    164 C55        -3.8830   -1.8930    4.9140 c3        1 MOL     -0.230066
    165 H73        -4.6330   -1.2400    5.3610 h1        1 MOL      0.103254
    166 H74        -3.5700   -2.6400    5.6420 h1        1 MOL      0.103254
    167 H75        -3.0220   -1.2990    4.6080 h1        1 MOL      0.103254
    168 H76        -4.6470   -2.0710    2.8630 hn        1 MOL      0.251278
    169 Ca1        -0.3000   -3.8150   -2.2430 Ca        1 MOL      1.677490
    170 O24        -0.2510   -6.2020   -3.3090 oh        1 MOL     -0.821156
    171 H77        -0.6300   -6.4870   -4.1430 ho        1 MOL      0.407439
    172 H78        -0.2030   -7.0000   -2.7830 ho        1 MOL      0.407439
    173 O25         1.2760   -5.4490   -0.7280 oh        1 MOL     -0.821156
    174 H79         1.8290   -5.5510    0.0480 ho        1 MOL      0.407439
    175 H80         0.6000   -6.1270   -0.6330 ho        1 MOL      0.407439
    176 O26        -0.3140   -3.3130   -5.0440 oh        1 MOL     -0.821156
    177 H81         0.0110   -2.4720   -5.3630 ho        1 MOL      0.407439
    178 H82         0.3480   -3.9460   -5.3090 ho        1 MOL      0.407439
    179 O27        -2.5560   -2.7440   -3.2290 oh        1 MOL     -0.821156
    180 H83        -2.7150   -1.9240   -2.7630 ho        1 MOL      0.407439
    181 H84        -2.9940   -2.6250   -4.0670 ho        1 MOL      0.407439
@<TRIPOS>BOND
     1    1    2 1   
     2    1    4 1   
     3    1    5 1   
     4    1    6 1   
     5    2    3 2   
     6    2    7 1   
     7    7    8 1   
     8    7   15 1   
     9    8    9 1   
    10    8   11 1   
    11    8   16 1   
    12    9   10 2   
    13    9   19 1   
    14   11   12 1   
    15   11   17 1   
    16   11   18 1   
    17   12   13 1   
    18   12   14 1   
    19   19   20 1   
    20   19   24 1   
    21   20   21 1   
    22   20   23 1   
    23   20   25 1   
    24   21   22 2   
    25   21   29 1   
    26   23   26 1   
    27   23   27 1   
    28   23   28 1   
    29   29   30 1   
    30   29   37 1   
    31   30   31 1   
    32   30   33 1   
    33   30   38 1   
    34   31   32 2   
    35   31   41 1   
    36   33   34 1   
    37   33   39 1   
    38   33   40 1   
    39   34   35 1   
    40   34   36 1   
    41   41   42 1   
    42   41   45 1   
    43   42   43 1   
    44   42   46 1   
    45   42   47 1   
    46   43   44 2   
    47   43   48 1   
    48   48   49 1   
    49   48   56 1   
    50   49   50 1   
    51   49   52 1   
    52   49   57 1   
    53   50   51 2   
    54   50   62 1   
    55   52   53 1   
    56   52   58 1   
    57   52   59 1   
    58   53   54 1   
    59   53   55 2   
    60   54   60 1   
    61   54   61 1   
    62   62   63 1   
    63   62   66 1   
    64   63   64 1   
    65   63   67 1   
    66   63   68 1   
    67   64   65 2   
    68   64   69 1   
    69   69   70 1   
    70   69   76 1   
    71   70   71 1   
    72   70   73 1   
    73   70   77 1   
    74   71   72 2   
    75   71   83 1   
    76   73   74 1   
    77   73   75 1   
    78   73   78 1   
    79   74   80 1   
    80   74   81 1   
    81   74   82 1   
    82   75   79 1   
    83   83   84 1   
    84   83   91 1   
    85   84   85 1   
    86   84   87 1   
    87   84   92 1   
    88   85   86 2   
    89   85  102 1   
    90   87   88 1   
    91   87   89 1   
    92   87   93 1   
    93   88   90 1   
    94   88   94 1   
    95   88   95 1   
    96   89   96 1   
    97   89   97 1   
    98   89   98 1   
    99   90   99 1   
   100   90  100 1   
   101   90  101 1   
   102  102  103 1   
   103  102  110 1   
   104  103  104 1   
   105  103  106 1   
   106  103  111 1   
   107  104  105 2   
   108  104  114 1   
   109  106  107 1   
   110  106  112 1   
   111  106  113 1   
   112  107  108 1   
   113  107  109 1   
   114  114  115 1   
   115  114  125 1   
   116  115  116 1   
   117  115  118 1   
   118  115  126 1   
   119  116  117 2   
   120  116  134 1   
   121  118  119 1   
   122  118  127 1   
   123  118  128 1   
   124  119  120 ar  
   125  119  121 ar  
   126  120  122 ar  
   127  120  129 1   
   128  121  123 ar  
   129  121  130 1   
   130  122  124 ar  
   131  122  131 1   
   132  123  124 ar  
   133  123  132 1   
   134  124  133 1   
   135  134  135 1   
   136  134  140 1   
   137  135  136 1   
   138  135  138 1   
   139  135  141 1   
   140  136  137 2   
   141  136  148 1   
   142  138  139 1   
   143  138  142 1   
   144  138  143 1   
   145  139  140 1   
   146  139  144 1   
   147  139  145 1   
   148  140  146 1   
   149  140  147 1   
   150  148  149 1   
   151  148  157 1   
   152  149  150 1   
   153  149  152 1   
   154  149  158 1   
   155  150  151 2   
   156  150  163 1   
   157  152  153 1   
   158  152  159 1   
   159  152  160 1   
   160  153  154 1   
   161  153  161 1   
   162  153  162 1   
   163  154  155 1   
   164  154  156 1   
   165  163  164 1   
   166  163  168 1   
   167  164  165 1   
   168  164  166 1   
   169  164  167 1   
   170  170  171 1   
   171  170  172 1   
   172  173  174 1   
   173  173  175 1   
   174  176  177 1   
   175  176  178 1   
   176  179  180 1   
   177  179  181 1   
@<TRIPOS>SUBSTRUCTURE
     1 MOL         1 TEMP              0 ****  ****    0 ROOT
