@<TRIPOS>MOLECULE
MOL
  192   187     1     0     0
SMALL
resp


@<TRIPOS>ATOM
      1 C1          4.0510    6.1090   -3.4300 c3        1 MOL     -0.301014
      2 C2          4.1640    4.6120   -2.8980 c         1 MOL      0.649761
      3 O1          4.4230    3.6910   -3.6540 o         1 MOL     -0.586432
      4 H1          4.8990    6.6880   -3.0640 hc        1 MOL      0.078753
      5 H2          4.0550    6.1090   -4.5200 hc        1 MOL      0.078753
      6 H3          3.1240    6.5540   -3.0700 hc        1 MOL      0.078753
      7 N1          3.8390    4.3330   -1.6630 n         1 MOL     -0.481261
      8 C3          3.8350    2.9570   -1.0650 c3        1 MOL      0.194677
      9 C4          2.4470    2.7570   -0.2870 c         1 MOL      0.392930
     10 O2          2.4090    2.2200    0.8250 o         1 MOL     -0.356325
     11 C5          4.9880    2.8460   -0.0740 c3        1 MOL     -0.262543
     12 C6          5.0140    3.8720    1.0910 c         1 MOL      0.709756
     13 O3          5.6030    3.6610    2.1820 o         1 MOL     -0.694047
     14 O4          4.3110    4.8920    0.9550 o         1 MOL     -0.694047
     15 H4          3.6180    5.1280   -1.0690 hn        1 MOL      0.280646
     16 H5          3.8540    2.1520   -1.7940 h1        1 MOL      0.097298
     17 H6          5.8810    2.9530   -0.6880 hc        1 MOL      0.063708
     18 H7          5.0300    1.8050    0.2640 hc        1 MOL      0.063708
     19 N2          1.3170    3.1520   -0.9260 n         1 MOL     -0.510502
     20 C7         -0.0430    2.8840   -0.5100 c3        1 MOL     -0.004605
     21 C8         -0.9020    2.2860   -1.6260 c         1 MOL      0.768949
     22 O5         -0.9350    2.8600   -2.6960 o         1 MOL     -0.594591
     23 C9         -0.7450    4.1620    0.0150 c3        1 MOL     -0.002279
     24 C10        -0.3240    4.5670    1.4320 c3        1 MOL     -0.120563
     25 C11        -1.0920    5.7000    2.0620 c3        1 MOL      0.087576
     26 C12        -0.6270    6.3820    3.3280 c3        1 MOL      0.042124
     27 N3          0.4850    7.3330    3.0950 n4        1 MOL     -0.374427
     28 H8          1.5480    3.4520   -1.8540 hn        1 MOL      0.295339
     29 H9          0.0070    2.2750    0.3930 h1        1 MOL      0.173954
     30 H10        -1.8220    4.1080   -0.0660 hc        1 MOL      0.013820
     31 H11        -0.5400    5.0150   -0.6320 hc        1 MOL      0.013820
     32 H12         0.7550    4.7300    1.4020 hc        1 MOL      0.035779
     33 H13        -0.4110    3.6460    2.0200 hc        1 MOL      0.035779
     34 H14        -2.1390    5.4230    2.2160 hc        1 MOL      0.019710
     35 H15        -1.2300    6.4860    1.3320 hc        1 MOL      0.019710
     36 H16        -0.3230    5.6260    4.0600 hx        1 MOL      0.071816
     37 H17        -1.4050    6.9510    3.8160 hx        1 MOL      0.071816
     38 H18         0.7010    7.6900    4.0150 hn        1 MOL      0.323774
     39 H19         1.3020    6.9250    2.6740 hn        1 MOL      0.323774
     40 H20         0.1040    8.0940    2.5410 hn        1 MOL      0.323774
     41 N4         -1.7090    1.2390   -1.4850 n         1 MOL     -0.534021
     42 C13        -2.0230    0.4820   -0.2370 c3        1 MOL      0.034444
     43 C14        -2.4800    1.2880    1.0230 c         1 MOL      0.097454
     44 O6         -2.0160    1.1000    2.1110 o         1 MOL     -0.441779
     45 C15        -0.8360   -0.5460    0.1210 c3        1 MOL     -0.169568
     46 C16        -0.3650   -1.3190   -1.0870 c         1 MOL      0.435093
     47 O7          0.8510   -1.4210   -1.3770 o         1 MOL     -0.608024
     48 O8         -1.1270   -1.7660   -1.9570 o         1 MOL     -0.608024
     49 H21        -2.0310    0.8830   -2.3760 hn        1 MOL      0.281756
     50 H22        -2.9270   -0.0810   -0.4360 h1        1 MOL      0.192534
     51 H23        -1.1920   -1.1840    0.9390 hc        1 MOL      0.106531
     52 H24        -0.0110    0.0160    0.5650 hc        1 MOL      0.106531
     53 N5         -3.2860    2.3800    0.9630 n         1 MOL     -0.085139
     54 C17        -4.3140    2.5380    0.0120 c3        1 MOL      0.009678
     55 C18        -5.3350    3.6420    0.1970 c         1 MOL      0.510244
     56 O9         -5.1040    4.5580    1.0460 o         1 MOL     -0.591153
     57 H25        -3.3960    2.9120    1.8230 hn        1 MOL      0.223008
     58 H26        -4.8600    1.6000   -0.1110 h1        1 MOL      0.018200
     59 H27        -3.8030    2.6420   -0.9450 h1        1 MOL      0.018200
     60 N6         -6.3980    3.7450   -0.5730 n         1 MOL     -0.374154
     61 C19        -6.6220    2.9470   -1.8650 c3        1 MOL      0.001572
     62 C20        -7.2980    1.5990   -1.5390 c         1 MOL      0.391982
     63 O10        -7.5580    1.1780   -0.4060 o         1 MOL     -0.437591
     64 C21        -7.4680    3.8270   -2.8850 c3        1 MOL     -0.272570
     65 C22        -8.6810    4.3480   -2.0880 c         1 MOL      0.698412
     66 O11        -9.6400    3.4660   -1.9010 o         1 MOL     -0.660581
     67 O12        -8.8580    5.5550   -1.7280 o         1 MOL     -0.660581
     68 H28        -7.1240    4.3750   -0.2820 hn        1 MOL      0.309027
     69 H29        -5.6500    2.7830   -2.3310 h1        1 MOL      0.057708
     70 H30        -7.7620    3.2860   -3.7830 hc        1 MOL      0.064469
     71 H31        -6.8050    4.6650   -3.0560 hc        1 MOL      0.064469
     72 N7         -7.3160    0.8010   -2.6000 n         1 MOL     -0.263594
     73 C23        -7.8570   -0.5750   -2.6220 c3        1 MOL     -0.348250
     74 C24        -7.2190   -1.7500   -1.8700 c         1 MOL      0.608013
     75 O13        -7.5180   -2.8880   -2.0760 o         1 MOL     -0.570815
     76 H32        -6.9180    1.2000   -3.4470 hn        1 MOL      0.259483
     77 H33        -7.9420   -0.8410   -3.6730 h1        1 MOL      0.174606
     78 H34        -8.8480   -0.4400   -2.1870 h1        1 MOL      0.174606
     79 N8         -6.3440   -1.5060   -0.9200 n         1 MOL     -0.234975
     80 C25        -5.3550   -2.3990   -0.3710 c3        1 MOL     -0.053938
     81 C26        -4.7920   -1.8210    0.9140 c         1 MOL      0.536280
     82 O14        -4.8290   -0.5960    1.1790 o         1 MOL     -0.434300
     83 C27        -4.2700   -2.6340   -1.4230 c3        1 MOL      0.341874
     84 C28        -4.4790   -3.7560   -2.4200 c3        1 MOL     -0.043684
     85 O15        -3.0910   -3.1500   -0.8320 oh        1 MOL     -0.542094
     86 H35        -6.3040   -0.5260   -0.6720 hn        1 MOL      0.095841
     87 H36        -5.7850   -3.3590   -0.0630 h1        1 MOL      0.083040
     88 H37        -4.1080   -1.6800   -1.9230 h1        1 MOL     -0.038220
     89 H38        -2.3660   -2.5800   -1.0740 ho        1 MOL      0.241484
     90 H39        -3.7380   -3.7170   -3.2120 hc        1 MOL      0.004434
     91 H40        -4.4390   -4.7350   -1.9370 hc        1 MOL      0.004434
     92 H41        -5.4290   -3.7400   -2.9560 hc        1 MOL      0.004434
     93 N9         -4.2510   -2.6150    1.8360 n         1 MOL     -0.462553
     94 C29        -3.6120   -2.1710    3.1430 c3        1 MOL      0.027761
     95 C30        -2.1070   -2.5010    3.2840 c         1 MOL      0.285472
     96 O16        -1.4360   -2.1020    4.2430 o         1 MOL     -0.520904
     97 C31        -4.2770   -2.9230    4.3130 c3        1 MOL      0.014510
     98 C32        -4.4900   -4.4080    4.0910 c3        1 MOL      0.130609
     99 C33        -5.5590   -2.2120    4.7330 c3        1 MOL     -0.136946
    100 C34        -4.8010   -5.2060    5.3900 c3        1 MOL     -0.276706
    101 H42        -4.2330   -3.6050    1.6170 hn        1 MOL      0.236799
    102 H43        -3.6690   -1.1070    3.3340 h1        1 MOL      0.143868
    103 H44        -3.5770   -2.8250    5.1540 hc        1 MOL      0.065789
    104 H45        -3.6510   -4.9250    3.6370 hc        1 MOL     -0.007671
    105 H46        -5.3280   -4.6280    3.4330 hc        1 MOL     -0.007671
    106 H47        -5.7950   -2.5120    5.7580 hc        1 MOL      0.043201
    107 H48        -5.4690   -1.1220    4.7730 hc        1 MOL      0.043201
    108 H49        -6.3930   -2.3750    4.0500 hc        1 MOL      0.043201
    109 H50        -4.7660   -6.2860    5.2720 hc        1 MOL      0.067905
    110 H51        -4.0760   -4.8630    6.1240 hc        1 MOL      0.067905
    111 H52        -5.8060   -4.8850    5.6900 hc        1 MOL      0.067905
    112 N10        -1.5730   -3.3260    2.3900 n         1 MOL     -0.067969
    113 C35        -0.2330   -3.8860    2.4600 c3        1 MOL     -0.177425
    114 C36         0.9170   -2.9850    1.9420 c         1 MOL      0.532081
    115 O17         1.7090   -3.3410    1.1130 o         1 MOL     -0.477400
    116 C37        -0.1320   -5.2930    1.8170 c3        1 MOL      0.239662
    117 C38        -0.7610   -5.4050    0.4300 c3        1 MOL     -0.284576
    118 O18        -0.9230   -6.2580    2.5620 oh        1 MOL     -0.579498
    119 H53        -2.1930   -3.6220    1.6590 hn        1 MOL      0.230708
    120 H54        -0.1230   -4.0330    3.5370 h1        1 MOL      0.112031
    121 H55         0.8900   -5.6710    1.8550 h1        1 MOL      0.064506
    122 H56        -0.4890   -6.3140    3.4140 ho        1 MOL      0.369952
    123 H57        -0.4730   -6.3070   -0.1040 hc        1 MOL      0.076281
    124 H58        -1.8410   -5.2110    0.4510 hc        1 MOL      0.076281
    125 H59        -0.2280   -4.6820   -0.1890 hc        1 MOL      0.076281
    126 N11         1.0670   -1.8050    2.5180 n         1 MOL     -0.428468
    127 C39         2.1840   -0.8960    2.1870 c3        1 MOL     -0.160543
    128 C40         3.5470   -1.6030    2.1890 c         1 MOL      0.538882
    129 O19         3.8540   -2.3940    3.0880 o         1 MOL     -0.534720
    130 C41         2.2260    0.1880    3.3330 c3        1 MOL      0.191035
    131 C42         0.9390    1.0070    3.4970 c3        1 MOL     -0.275585
    132 O20         3.2320    1.1220    3.0480 oh        1 MOL     -0.502782
    133 H60         0.4090   -1.6440    3.2710 hn        1 MOL      0.294955
    134 H61         2.0180   -0.4440    1.2020 h1        1 MOL      0.088001
    135 H62         2.4890   -0.2640    4.2920 h1        1 MOL      0.081526
    136 H63         3.0750    1.4170    2.1400 ho        1 MOL      0.245472
    137 H64         0.9050    1.5310    4.4450 hc        1 MOL      0.085403
    138 H65         0.8680    1.6640    2.6300 hc        1 MOL      0.085403
    139 H66         0.0700    0.3400    3.4710 hc        1 MOL      0.085403
    140 N12         4.5000   -1.1790    1.3690 n         1 MOL     -0.326602
    141 C43         5.9210   -1.6500    1.3110 c3        1 MOL     -0.147956
    142 C44         6.4440   -1.7790   -0.1040 c         1 MOL      0.575454
    143 O21         7.5980   -2.0950   -0.2320 o         1 MOL     -0.554672
    144 C45         6.8450   -0.7160    2.1190 c3        1 MOL     -0.088968
    145 C46         6.4060   -0.3680    3.5770 c3        1 MOL      0.084722
    146 C47         7.2120    0.8280    4.2070 c3        1 MOL     -0.148080
    147 C48         6.3310    1.4780    5.2780 c3        1 MOL      0.055907
    148 N13         5.3000    2.4150    4.6120 n4        1 MOL     -0.241472
    149 H67         4.2840   -0.5350    0.6180 hn        1 MOL      0.198966
    150 H68         5.9800   -2.6100    1.8270 h1        1 MOL      0.149101
    151 H69         6.8310    0.2690    1.6590 hc        1 MOL      0.052052
    152 H70         7.8670   -1.0670    2.2360 hc        1 MOL      0.052052
    153 H71         6.5450   -1.2790    4.1560 hc        1 MOL      0.024778
    154 H72         5.3520   -0.0840    3.5380 hc        1 MOL      0.024778
    155 H73         7.5200    1.4990    3.4060 hc        1 MOL      0.065564
    156 H74         8.0650    0.3760    4.7000 hc        1 MOL      0.065564
    157 H75         6.9880    2.0710    5.9080 hx        1 MOL      0.053211
    158 H76         5.8830    0.7290    5.9440 hx        1 MOL      0.053211
    159 H77         4.5510    1.9010    4.1790 hn        1 MOL      0.264391
    160 H78         4.9570    3.0890    5.2900 hn        1 MOL      0.264391
    161 H79         5.6970    2.9220    3.8360 hn        1 MOL      0.264391
    162 N14         5.7610   -1.6530   -1.2340 n         1 MOL     -0.378196
    163 C49         6.3400   -1.6560   -2.5980 c3        1 MOL     -0.218083
    164 C50         7.1160   -0.3110   -2.8230 c         1 MOL      0.511121
    165 O22         6.4880    0.7050   -2.9460 o         1 MOL     -0.433770
    166 C51         5.3290   -2.0060   -3.6680 c3        1 MOL     -0.383724
    167 C52         4.6070   -3.3420   -3.5560 c3        1 MOL      0.426349
    168 C53         3.6530   -3.4410   -4.8060 c         1 MOL      0.657528
    169 O23         3.8600   -4.2980   -5.6790 o         1 MOL     -0.721740
    170 O24         2.6250   -2.6540   -4.7570 o         1 MOL     -0.721740
    171 H80         4.8250   -1.2790   -1.2200 hn        1 MOL      0.348599
    172 H81         7.0220   -2.5070   -2.6240 h1        1 MOL      0.145336
    173 H82         5.8750   -1.9490   -4.6130 hc        1 MOL      0.103119
    174 H83         4.6840   -1.1250   -3.6590 hc        1 MOL      0.103119
    175 H84         3.9210   -3.2740   -2.7090 hc        1 MOL     -0.109943
    176 H85         5.3020   -4.1790   -3.5670 hc        1 MOL     -0.109943
    177 N15         8.4850   -0.3810   -2.7690 n         1 MOL     -0.348268
    178 C54         9.3290    0.8150   -2.8500 c3        1 MOL      0.019233
    179 H86        10.1600    0.6260   -3.5300 h1        1 MOL      0.044919
    180 H87         8.7390    1.6530   -3.2210 h1        1 MOL      0.044919
    181 H88         9.7170    1.0540   -1.8600 h1        1 MOL      0.044919
    182 H89         8.8790   -1.3110   -2.6680 hn        1 MOL      0.273752
    183 Ca1         0.3290   -2.9230   -3.6560 Ca        1 MOL      1.729255
    184 O25         1.8040   -4.9920   -2.6970 oh        1 MOL     -0.897927
    185 H90         2.2550   -4.8670   -1.8600 ho        1 MOL      0.435209
    186 H91         1.7510   -5.9410   -2.8000 ho        1 MOL      0.435209
    187 O26         0.6990   -0.4380   -4.3790 oh        1 MOL     -0.897927
    188 H92         0.1200   -0.0230   -5.0100 ho        1 MOL      0.435209
    189 H93         1.5480   -0.0100   -4.5040 ho        1 MOL      0.435209
    190 O27        -1.4670   -4.6500   -2.5920 oh        1 MOL     -0.897927
    191 H94        -1.2270   -5.5570   -2.7200 ho        1 MOL      0.435209
    192 H95        -2.1880   -4.6820   -1.9570 ho        1 MOL      0.435209
@<TRIPOS>BOND
     1    1    2 1   
     2    1    4 1   
     3    1    5 1   
     4    1    6 1   
     5    2    3 2   
     6    2    7 1   
     7    7    8 1   
     8    7   15 1   
     9    8    9 1   
    10    8   11 1   
    11    8   16 1   
    12    9   10 2   
    13    9   19 1   
    14   11   12 1   
    15   11   17 1   
    16   11   18 1   
    17   12   13 1   
    18   12   14 1   
    19   19   20 1   
    20   19   28 1   
    21   20   21 1   
    22   20   23 1   
    23   20   29 1   
    24   21   22 2   
    25   21   41 1   
    26   23   24 1   
    27   23   30 1   
    28   23   31 1   
    29   24   25 1   
    30   24   32 1   
    31   24   33 1   
    32   25   26 1   
    33   25   34 1   
    34   25   35 1   
    35   26   27 1   
    36   26   36 1   
    37   26   37 1   
    38   27   38 1   
    39   27   39 1   
    40   27   40 1   
    41   41   42 1   
    42   41   49 1   
    43   42   43 1   
    44   42   45 1   
    45   42   50 1   
    46   43   44 2   
    47   43   53 1   
    48   45   46 1   
    49   45   51 1   
    50   45   52 1   
    51   46   47 1   
    52   46   48 1   
    53   53   54 1   
    54   53   57 1   
    55   54   55 1   
    56   54   58 1   
    57   54   59 1   
    58   55   56 2   
    59   55   60 1   
    60   60   61 1   
    61   60   68 1   
    62   61   62 1   
    63   61   64 1   
    64   61   69 1   
    65   62   63 2   
    66   62   72 1   
    67   64   65 1   
    68   64   70 1   
    69   64   71 1   
    70   65   66 1   
    71   65   67 1   
    72   72   73 1   
    73   72   76 1   
    74   73   74 1   
    75   73   77 1   
    76   73   78 1   
    77   74   75 2   
    78   74   79 1   
    79   79   80 1   
    80   79   86 1   
    81   80   81 1   
    82   80   83 1   
    83   80   87 1   
    84   81   82 2   
    85   81   93 1   
    86   83   84 1   
    87   83   85 1   
    88   83   88 1   
    89   84   90 1   
    90   84   91 1   
    91   84   92 1   
    92   85   89 1   
    93   93   94 1   
    94   93  101 1   
    95   94   95 1   
    96   94   97 1   
    97   94  102 1   
    98   95   96 2   
    99   95  112 1   
   100   97   98 1   
   101   97   99 1   
   102   97  103 1   
   103   98  100 1   
   104   98  104 1   
   105   98  105 1   
   106   99  106 1   
   107   99  107 1   
   108   99  108 1   
   109  100  109 1   
   110  100  110 1   
   111  100  111 1   
   112  112  113 1   
   113  112  119 1   
   114  113  114 1   
   115  113  116 1   
   116  113  120 1   
   117  114  115 2   
   118  114  126 1   
   119  116  117 1   
   120  116  118 1   
   121  116  121 1   
   122  117  123 1   
   123  117  124 1   
   124  117  125 1   
   125  118  122 1   
   126  126  127 1   
   127  126  133 1   
   128  127  128 1   
   129  127  130 1   
   130  127  134 1   
   131  128  129 2   
   132  128  140 1   
   133  130  131 1   
   134  130  132 1   
   135  130  135 1   
   136  131  137 1   
   137  131  138 1   
   138  131  139 1   
   139  132  136 1   
   140  140  141 1   
   141  140  149 1   
   142  141  142 1   
   143  141  144 1   
   144  141  150 1   
   145  142  143 2   
   146  142  162 1   
   147  144  145 1   
   148  144  151 1   
   149  144  152 1   
   150  145  146 1   
   151  145  153 1   
   152  145  154 1   
   153  146  147 1   
   154  146  155 1   
   155  146  156 1   
   156  147  148 1   
   157  147  157 1   
   158  147  158 1   
   159  148  159 1   
   160  148  160 1   
   161  148  161 1   
   162  162  163 1   
   163  162  171 1   
   164  163  164 1   
   165  163  166 1   
   166  163  172 1   
   167  164  165 2   
   168  164  177 1   
   169  166  167 1   
   170  166  173 1   
   171  166  174 1   
   172  167  168 1   
   173  167  175 1   
   174  167  176 1   
   175  168  169 1   
   176  168  170 1   
   177  177  178 1   
   178  177  182 1   
   179  178  179 1   
   180  178  180 1   
   181  178  181 1   
   182  184  185 1   
   183  184  186 1   
   184  187  188 1   
   185  187  189 1   
   186  190  191 1   
   187  190  192 1   
@<TRIPOS>SUBSTRUCTURE
     1 MOL         1 TEMP              0 ****  ****    0 ROOT
