@<TRIPOS>MOLECULE
MOL
  181   177     1     0     0
SMALL
resp


@<TRIPOS>ATOM
      1 C1         11.2060   -6.2120    2.5730 c3        1 MOL     -0.279220
      2 C2         10.5770   -5.6970    1.2750 c         1 MOL      0.732838
      3 O1         10.3790   -6.5070    0.3370 o         1 MOL     -0.616795
      4 H1         11.0310   -5.4910    3.3720 hc        1 MOL      0.063071
      5 H2         10.7560   -7.1680    2.8420 hc        1 MOL      0.063071
      6 H3         12.2800   -6.3420    2.4310 hc        1 MOL      0.063071
      7 N1         10.3040   -4.4320    1.0870 n         1 MOL     -0.760806
      8 C3         10.5410   -3.2760    1.9620 c3        1 MOL      0.533870
      9 C4         11.1720   -2.0970    1.1050 c         1 MOL      0.206703
     10 O2         11.4820   -2.1920   -0.0980 o         1 MOL     -0.292744
     11 C5          9.1910   -2.6560    2.5470 c3        1 MOL     -0.280720
     12 C6          8.1580   -2.3580    1.4380 c         1 MOL      0.695631
     13 O3          7.4960   -1.2840    1.4410 o         1 MOL     -0.664809
     14 O4          7.8640   -3.1780    0.5870 o         1 MOL     -0.664809
     15 H4          9.8210   -4.2370    0.2220 hn        1 MOL      0.418250
     16 H5         11.1960   -3.5610    2.7840 h1        1 MOL     -0.047498
     17 H6          9.4390   -1.7230    3.0410 hc        1 MOL      0.017331
     18 H7          8.8120   -3.3330    3.3130 hc        1 MOL      0.017331
     19 N2         11.5700   -1.0270    1.8260 n         1 MOL     -0.538025
     20 C7         12.4650   -0.0140    1.3140 c3        1 MOL      0.247835
     21 C8         11.8940    0.7770    0.0920 c         1 MOL      0.438415
     22 O5         12.6060    1.4170   -0.6450 o         1 MOL     -0.526948
     23 C9         13.8940   -0.6320    1.2130 c3        1 MOL     -0.205680
     24 H8         11.3520   -0.9200    2.8020 hn        1 MOL      0.315650
     25 H9         12.6110    0.7020    2.1200 h1        1 MOL      0.015975
     26 H10        14.5360    0.2410    1.1050 hc        1 MOL      0.059537
     27 H11        14.2370   -1.0880    2.1420 hc        1 MOL      0.059537
     28 H12        13.9900   -1.2750    0.3310 hc        1 MOL      0.059537
     29 N3         10.5630    0.7750   -0.1230 n         1 MOL     -0.350499
     30 C10         9.8940    1.4730   -1.2560 c3        1 MOL      0.043400
     31 C11         8.3710    1.8150   -0.9990 c         1 MOL      0.371793
     32 O6          7.7510    1.0710   -0.2370 o         1 MOL     -0.514550
     33 C12         9.9210    0.6070   -2.5100 c3        1 MOL      0.011497
     34 C13         9.4670   -0.8150   -2.3200 c         1 MOL      0.544417
     35 O7          8.2470   -1.0840   -1.9310 o         1 MOL     -0.647296
     36 O8         10.2130   -1.7390   -2.6730 o         1 MOL     -0.647296
     37 H13        10.0340    0.1320    0.4460 hn        1 MOL      0.218352
     38 H14        10.3660    2.4090   -1.5450 h1        1 MOL      0.025904
     39 H15        10.9620    0.5590   -2.8200 hc        1 MOL      0.009923
     40 H16         9.3020    1.0610   -3.2790 hc        1 MOL      0.009923
     41 N4          7.8840    2.9290   -1.5670 n         1 MOL     -0.276635
     42 C14         6.6080    3.5070   -1.3560 c3        1 MOL     -0.238874
     43 C15         5.4370    2.6080   -0.9360 c         1 MOL      0.553976
     44 O9          5.1290    1.4980   -1.4810 o         1 MOL     -0.593988
     45 H17         8.5840    3.4160   -2.1110 hn        1 MOL      0.269239
     46 H18         6.2360    3.9980   -2.2570 h1        1 MOL      0.125348
     47 H19         6.7750    4.3140   -0.6430 h1        1 MOL      0.125348
     48 N5          4.7000    3.1040    0.0180 n         1 MOL     -0.340125
     49 C16         3.4330    2.6130    0.6090 c3        1 MOL      0.080284
     50 C17         2.4120    3.7230    0.6200 c         1 MOL      0.407883
     51 O10         2.8100    4.9200    0.5500 o         1 MOL     -0.544702
     52 C18         3.5930    2.1090    2.0420 c3        1 MOL      0.057688
     53 C19         4.5810    0.9750    2.1630 c         1 MOL      0.437841
     54 N6          4.9850    0.7160    3.3820 n         1 MOL     -0.666270
     55 O11         4.7810    0.2340    1.1710 o         1 MOL     -0.507220
     56 H20         4.9240    4.0320    0.3610 hn        1 MOL      0.226514
     57 H21         3.0110    1.8420   -0.0280 h1        1 MOL      0.150204
     58 H22         2.6320    1.7670    2.4160 hc        1 MOL      0.016799
     59 H23         3.9220    2.8450    2.7670 hc        1 MOL      0.016799
     60 H24         4.5700    1.2450    4.1350 hn        1 MOL      0.340443
     61 H25         5.4470   -0.1710    3.5860 hn        1 MOL      0.340443
     62 N7          1.1580    3.4040    0.8790 n         1 MOL     -0.476019
     63 C20         0.0190    4.2820    0.7110 c3        1 MOL      0.197086
     64 C21        -0.2060    4.7470   -0.7570 c         1 MOL      0.557106
     65 O12         0.1770    4.1860   -1.7420 o         1 MOL     -0.492222
     66 H26         0.9210    2.4210    0.9570 hn        1 MOL      0.293297
     67 H27         0.1090    5.1230    1.3970 h1        1 MOL      0.046403
     68 H28        -0.8700    3.7200    0.9810 h1        1 MOL      0.046403
     69 N8         -1.0900    5.7300   -0.9780 n         1 MOL     -0.456079
     70 C22        -1.8630    6.4750    0.1100 c3        1 MOL     -0.426766
     71 C23        -3.0030    5.5780    0.7550 c         1 MOL      0.500489
     72 O13        -3.2350    5.5500    1.9520 o         1 MOL     -0.588149
     73 C24        -2.4450    7.8330   -0.3960 c3        1 MOL      0.542551
     74 C25        -1.2450    8.7950   -0.6150 c3        1 MOL     -0.447270
     75 O14        -3.2220    7.6870   -1.5200 oh        1 MOL     -0.673055
     76 H29        -1.1150    6.0530   -1.9350 hn        1 MOL      0.277165
     77 H30        -1.2210    6.7770    0.9270 h1        1 MOL      0.155474
     78 H31        -3.0310    8.2270    0.4310 h1        1 MOL      0.031378
     79 H32        -2.6750    7.4890   -2.2920 ho        1 MOL      0.434916
     80 H33        -0.9220    9.1520    0.3570 hc        1 MOL      0.101854
     81 H34        -0.4730    8.3110   -1.2120 hc        1 MOL      0.101854
     82 H35        -1.5240    9.6000   -1.3030 hc        1 MOL      0.101854
     83 N9         -3.5940    4.7270   -0.0350 n         1 MOL      0.006183
     84 C26        -4.6390    3.7960    0.3500 c3        1 MOL     -0.310779
     85 C27        -4.7940    2.7900   -0.7590 c         1 MOL      0.494662
     86 O15        -4.7710    3.2280   -1.9130 o         1 MOL     -0.579160
     87 C28        -5.9720    4.4950    0.8120 c3        1 MOL      0.028341
     88 C29        -6.9600    3.4900    1.4620 c3        1 MOL      0.033876
     89 C30        -6.7220    5.1410   -0.4030 c3        1 MOL     -0.136467
     90 C31        -8.1260    4.1440    2.2340 c3        1 MOL     -0.356172
     91 H36        -3.2180    4.7160   -0.9780 hn        1 MOL      0.210866
     92 H37        -4.3420    3.2210    1.2370 h1        1 MOL      0.116780
     93 H38        -5.7050    5.2690    1.5280 hc        1 MOL      0.074824
     94 H39        -6.4970    2.8860    2.2430 hc        1 MOL      0.049993
     95 H40        -7.3390    2.7400    0.7540 hc        1 MOL      0.049993
     96 H41        -7.3330    5.9710   -0.0360 hc        1 MOL      0.023971
     97 H42        -6.0590    5.6680   -1.0960 hc        1 MOL      0.023971
     98 H43        -7.3530    4.4380   -0.9540 hc        1 MOL      0.023971
     99 H44        -7.7900    4.8860    2.9540 hc        1 MOL      0.076014
    100 H45        -8.7650    4.7080    1.5430 hc        1 MOL      0.076014
    101 H46        -8.6260    3.4010    2.8440 hc        1 MOL      0.076014
    102 N10        -5.0080    1.5050   -0.5470 n         1 MOL      0.029804
    103 C32        -5.0320    0.8050    0.7630 c3        1 MOL     -0.013062
    104 C33        -6.4100    0.1110    1.0010 c         1 MOL      0.554263
    105 O16        -6.5450   -0.3970    2.1100 o         1 MOL     -0.565298
    106 C34        -3.8690   -0.2430    0.9290 c3        1 MOL     -0.365575
    107 C35        -2.5250    0.4330    0.7410 c         1 MOL      0.716387
    108 O17        -2.0300    0.5760   -0.3910 o         1 MOL     -0.709604
    109 O18        -1.9550    0.9560    1.7140 o         1 MOL     -0.709604
    110 H47        -5.1150    0.9160   -1.3640 hn        1 MOL      0.105030
    111 H48        -5.0470    1.5080    1.5960 h1        1 MOL      0.041173
    112 H49        -4.0600   -1.0570    0.2180 hc        1 MOL      0.085307
    113 H50        -3.9540   -0.7430    1.8960 hc        1 MOL      0.085307
    114 N11        -7.3800    0.1400    0.0630 n         1 MOL     -0.418221
    115 C36        -8.6910   -0.5260    0.2800 c3        1 MOL      0.428502
    116 C37        -9.3240   -1.1800   -0.9860 c         1 MOL      0.108389
    117 O19        -9.0950   -0.4510   -1.9870 o         1 MOL     -0.452030
    118 C38        -9.6780    0.4700    0.9070 c3        1 MOL     -0.298780
    119 C39       -10.7950   -0.2430    1.5500 ca        1 MOL      0.100349
    120 C40       -12.0000   -0.3420    0.7730 ca        1 MOL     -0.162875
    121 C41       -10.7410   -0.6930    2.8690 ca        1 MOL     -0.162875
    122 C42       -13.1270   -0.8990    1.4220 ca        1 MOL     -0.132561
    123 C43       -11.8470   -1.3660    3.4180 ca        1 MOL     -0.132561
    124 C44       -13.0370   -1.4110    2.7520 ca        1 MOL     -0.112391
    125 H51        -7.0830    0.5700   -0.8000 hn        1 MOL      0.217594
    126 H52        -8.6150   -1.3240    1.0140 h1        1 MOL     -0.066090
    127 H53       -10.0860    1.1620    0.1720 hc        1 MOL      0.101721
    128 H54        -9.1320    0.9940    1.7000 hc        1 MOL      0.101721
    129 H55       -11.9900    0.0390   -0.2360 ha        1 MOL      0.139315
    130 H56        -9.8060   -0.5690    3.4060 ha        1 MOL      0.139315
    131 H57       -14.0460   -0.9320    0.8700 ha        1 MOL      0.106105
    132 H58       -11.8260   -1.9000    4.3610 ha        1 MOL      0.106105
    133 H59       -13.8970   -1.8690    3.2200 ha        1 MOL      0.094704
    134 N12       -10.1170   -2.3080   -1.0780 n         1 MOL      0.092438
    135 C45       -10.2320   -3.2110    0.0730 c3        1 MOL     -0.073664
    136 C46        -8.9500   -4.1300    0.1670 c         1 MOL      0.495967
    137 O20        -8.6250   -4.8120    1.1230 o         1 MOL     -0.557143
    138 C47       -11.3770   -4.1960   -0.2620 c3        1 MOL     -0.091552
    139 C48       -11.3320   -4.1360   -1.8030 c3        1 MOL     -0.022584
    140 C49       -11.0150   -2.6820   -2.1930 c3        1 MOL     -0.032713
    141 H60       -10.5260   -2.7210    1.0010 h1        1 MOL      0.111776
    142 H61       -11.2220   -5.1680    0.2070 hc        1 MOL      0.038938
    143 H62       -12.3150   -3.7690    0.1010 hc        1 MOL      0.038938
    144 H63       -10.5610   -4.7810   -2.2190 hc        1 MOL      0.017253
    145 H64       -12.2920   -4.4340   -2.2300 hc        1 MOL      0.017253
    146 H65       -10.5070   -2.5920   -3.1460 h1        1 MOL      0.036998
    147 H66       -11.9210   -2.0820   -2.0690 h1        1 MOL      0.036998
    148 N13        -8.1550   -4.1650   -0.9440 n         1 MOL     -0.304968
    149 C50        -6.8220   -4.7810   -0.9660 c3        1 MOL     -0.062355
    150 C51        -6.7870   -6.3090   -1.2530 c         1 MOL      0.492515
    151 O21        -7.0280   -6.7350   -2.3550 o         1 MOL     -0.589605
    152 C52        -5.8740   -4.0870   -2.0050 c3        1 MOL      0.060364
    153 C53        -5.7970   -2.6200   -1.5510 c3        1 MOL     -0.084204
    154 C54        -4.8130   -1.6730   -2.1990 c         1 MOL      0.688772
    155 O22        -3.6880   -2.1240   -2.4000 o         1 MOL     -0.671866
    156 O23        -5.2640   -0.6260   -2.7260 o         1 MOL     -0.671866
    157 H67        -8.4320   -3.7770   -1.8330 hn        1 MOL      0.294137
    158 H68        -6.3890   -4.5950    0.0170 h1        1 MOL      0.165988
    159 H69        -6.2250   -4.2610   -3.0200 hc        1 MOL     -0.000967
    160 H70        -4.9190   -4.5940   -1.8300 hc        1 MOL     -0.000967
    161 H71        -5.6480   -2.5160   -0.4800 hc        1 MOL     -0.024798
    162 H72        -6.7920   -2.2570   -1.7810 hc        1 MOL     -0.024798
    163 N14        -6.4790   -7.2230   -0.3420 n         1 MOL     -0.350247
    164 C55        -6.4390   -6.9690    1.1120 c3        1 MOL     -0.134182
    165 H73        -6.1090   -5.9460    1.2930 h1        1 MOL      0.074743
    166 H74        -7.4340   -7.1090    1.5330 h1        1 MOL      0.074743
    167 H75        -5.7430   -7.6640    1.5830 h1        1 MOL      0.074743
    168 H76        -6.4800   -8.1450   -0.7490 hn        1 MOL      0.263094
    169 Ca1         6.0520   -1.0580   -0.6830 Ca        1 MOL      1.690551
    170 O24         4.5930   -2.9310    1.2750 oh        1 MOL     -0.775739
    171 H77         4.6560   -2.5930    2.1710 ho        1 MOL      0.384792
    172 H78         3.7940   -3.4680    1.2740 ho        1 MOL      0.384792
    173 O25         5.9200   -3.3890   -2.0390 oh        1 MOL     -0.775739
    174 H79         5.2890   -3.4640   -2.7530 ho        1 MOL      0.384792
    175 H80         6.5160   -4.1290   -2.1650 ho        1 MOL      0.384792
    176 O26         3.6040   -1.2870   -1.6810 oh        1 MOL     -0.775739
    177 H81         2.7640   -1.5310   -1.2970 ho        1 MOL      0.384792
    178 H82         3.6580   -1.8100   -2.4840 ho        1 MOL      0.384792
    179 O27         5.8580   -0.6690   -3.3190 oh        1 MOL     -0.775739
    180 H83         5.5600   -0.9740   -4.1710 ho        1 MOL      0.384792
    181 H84         6.8090   -0.6060   -3.4080 ho        1 MOL      0.384792
@<TRIPOS>BOND
     1    1    2 1   
     2    1    4 1   
     3    1    5 1   
     4    1    6 1   
     5    2    3 2   
     6    2    7 1   
     7    7    8 1   
     8    7   15 1   
     9    8    9 1   
    10    8   11 1   
    11    8   16 1   
    12    9   10 2   
    13    9   19 1   
    14   11   12 1   
    15   11   17 1   
    16   11   18 1   
    17   12   13 1   
    18   12   14 1   
    19   19   20 1   
    20   19   24 1   
    21   20   21 1   
    22   20   23 1   
    23   20   25 1   
    24   21   22 2   
    25   21   29 1   
    26   23   26 1   
    27   23   27 1   
    28   23   28 1   
    29   29   30 1   
    30   29   37 1   
    31   30   31 1   
    32   30   33 1   
    33   30   38 1   
    34   31   32 2   
    35   31   41 1   
    36   33   34 1   
    37   33   39 1   
    38   33   40 1   
    39   34   35 1   
    40   34   36 1   
    41   41   42 1   
    42   41   45 1   
    43   42   43 1   
    44   42   46 1   
    45   42   47 1   
    46   43   44 2   
    47   43   48 1   
    48   48   49 1   
    49   48   56 1   
    50   49   50 1   
    51   49   52 1   
    52   49   57 1   
    53   50   51 2   
    54   50   62 1   
    55   52   53 1   
    56   52   58 1   
    57   52   59 1   
    58   53   54 1   
    59   53   55 2   
    60   54   60 1   
    61   54   61 1   
    62   62   63 1   
    63   62   66 1   
    64   63   64 1   
    65   63   67 1   
    66   63   68 1   
    67   64   65 2   
    68   64   69 1   
    69   69   70 1   
    70   69   76 1   
    71   70   71 1   
    72   70   73 1   
    73   70   77 1   
    74   71   72 2   
    75   71   83 1   
    76   73   74 1   
    77   73   75 1   
    78   73   78 1   
    79   74   80 1   
    80   74   81 1   
    81   74   82 1   
    82   75   79 1   
    83   83   84 1   
    84   83   91 1   
    85   84   85 1   
    86   84   87 1   
    87   84   92 1   
    88   85   86 2   
    89   85  102 1   
    90   87   88 1   
    91   87   89 1   
    92   87   93 1   
    93   88   90 1   
    94   88   94 1   
    95   88   95 1   
    96   89   96 1   
    97   89   97 1   
    98   89   98 1   
    99   90   99 1   
   100   90  100 1   
   101   90  101 1   
   102  102  103 1   
   103  102  110 1   
   104  103  104 1   
   105  103  106 1   
   106  103  111 1   
   107  104  105 2   
   108  104  114 1   
   109  106  107 1   
   110  106  112 1   
   111  106  113 1   
   112  107  108 1   
   113  107  109 1   
   114  114  115 1   
   115  114  125 1   
   116  115  116 1   
   117  115  118 1   
   118  115  126 1   
   119  116  117 2   
   120  116  134 1   
   121  118  119 1   
   122  118  127 1   
   123  118  128 1   
   124  119  120 ar  
   125  119  121 ar  
   126  120  122 ar  
   127  120  129 1   
   128  121  123 ar  
   129  121  130 1   
   130  122  124 ar  
   131  122  131 1   
   132  123  124 ar  
   133  123  132 1   
   134  124  133 1   
   135  134  135 1   
   136  134  140 1   
   137  135  136 1   
   138  135  138 1   
   139  135  141 1   
   140  136  137 2   
   141  136  148 1   
   142  138  139 1   
   143  138  142 1   
   144  138  143 1   
   145  139  140 1   
   146  139  144 1   
   147  139  145 1   
   148  140  146 1   
   149  140  147 1   
   150  148  149 1   
   151  148  157 1   
   152  149  150 1   
   153  149  152 1   
   154  149  158 1   
   155  150  151 2   
   156  150  163 1   
   157  152  153 1   
   158  152  159 1   
   159  152  160 1   
   160  153  154 1   
   161  153  161 1   
   162  153  162 1   
   163  154  155 1   
   164  154  156 1   
   165  163  164 1   
   166  163  168 1   
   167  164  165 1   
   168  164  166 1   
   169  164  167 1   
   170  170  171 1   
   171  170  172 1   
   172  173  174 1   
   173  173  175 1   
   174  176  177 1   
   175  176  178 1   
   176  179  180 1   
   177  179  181 1   
@<TRIPOS>SUBSTRUCTURE
     1 MOL         1 TEMP              0 ****  ****    0 ROOT
