@<TRIPOS>MOLECULE
MOL
  181   177     1     0     0
SMALL
resp


@<TRIPOS>ATOM
      1 C1         -7.4570    4.8570    4.8020 c3        1 MOL     -0.415215
      2 C2         -6.3000    4.7790    3.7990 c         1 MOL      0.780856
      3 O1         -5.3840    5.5570    3.8780 o         1 MOL     -0.581991
      4 H1         -7.3010    4.1240    5.5940 hc        1 MOL      0.108808
      5 H2         -7.4950    5.8570    5.2360 hc        1 MOL      0.108808
      6 H3         -8.3960    4.6440    4.2920 hc        1 MOL      0.108808
      7 N1         -6.3360    3.8410    2.8080 n         1 MOL     -0.724089
      8 C3         -7.1850    2.6970    2.6850 c3        1 MOL      0.191351
      9 C4         -8.0220    2.7420    1.4030 c         1 MOL      0.530378
     10 O2         -9.0170    2.0130    1.3100 o         1 MOL     -0.567576
     11 C5         -6.3540    1.4230    2.8070 c3        1 MOL     -0.164427
     12 C6         -5.4050    1.2070    1.6830 c         1 MOL      0.749276
     13 O3         -4.2420    0.8530    1.9070 o         1 MOL     -0.752638
     14 O4         -5.7370    1.1900    0.4650 o         1 MOL     -0.752638
     15 H4         -5.5740    3.8890    2.1510 hn        1 MOL      0.337725
     16 H5         -7.8770    2.7500    3.5310 h1        1 MOL      0.030015
     17 H6         -7.0420    0.5770    2.7610 hc        1 MOL      0.057472
     18 H7         -5.8930    1.4240    3.7910 hc        1 MOL      0.057472
     19 N2         -7.6420    3.4780    0.3620 n         1 MOL     -0.517818
     20 C7         -8.3030    3.6240   -0.9080 c3        1 MOL      0.253054
     21 C8         -8.6090    2.3160   -1.7240 c         1 MOL      0.411972
     22 O5         -9.5580    2.2170   -2.4980 o         1 MOL     -0.567131
     23 C9         -7.6070    4.6720   -1.7290 c3        1 MOL     -0.326445
     24 H8         -6.7310    3.9070    0.4310 hn        1 MOL      0.318451
     25 H9         -9.2850    4.0580   -0.7020 h1        1 MOL      0.023048
     26 H10        -8.2620    4.9360   -2.5610 hc        1 MOL      0.091019
     27 H11        -7.3080    5.5390   -1.1500 hc        1 MOL      0.091019
     28 H12        -6.6480    4.2550   -2.0260 hc        1 MOL      0.091019
     29 N3         -7.7040    1.3340   -1.7400 n         1 MOL     -0.169550
     30 C10        -7.7950    0.0920   -2.5330 c3        1 MOL      0.102426
     31 C11        -7.6770   -1.1810   -1.5390 c         1 MOL      0.368720
     32 O6         -7.7530   -2.3140   -2.0140 o         1 MOL     -0.495344
     33 C12        -6.8910    0.1230   -3.7130 c3        1 MOL     -0.295392
     34 C13        -5.4420    0.5250   -3.4060 c         1 MOL      0.806404
     35 O7         -4.9520    1.5260   -3.8790 o         1 MOL     -0.728702
     36 O8         -4.7650   -0.2570   -2.6750 o         1 MOL     -0.728702
     37 H13        -7.0220    1.3430   -0.9950 hn        1 MOL      0.110170
     38 H14        -8.7980   -0.0570   -2.9190 h1        1 MOL      0.080457
     39 H15        -7.3000    0.8660   -4.4050 hc        1 MOL      0.071835
     40 H16        -6.9250   -0.8990   -4.0830 hc        1 MOL      0.071835
     41 N4         -7.4450   -0.9640   -0.2150 n         1 MOL     -0.285393
     42 C14        -7.2680   -2.0250    0.7500 c3        1 MOL      0.037525
     43 C15        -5.7700   -2.1630    1.1390 c         1 MOL      0.533517
     44 O9         -4.8870   -1.6190    0.4320 o         1 MOL     -0.405187
     45 H17        -7.1920   -0.0650    0.1680 hn        1 MOL      0.173408
     46 H18        -7.7410   -2.9750    0.5240 h1        1 MOL      0.041966
     47 H19        -7.7050   -1.7810    1.7230 h1        1 MOL      0.041966
     48 N5         -5.4480   -2.8220    2.3300 n         1 MOL     -0.661264
     49 C16        -4.0100   -3.1920    2.6910 c3        1 MOL      0.225010
     50 C17        -3.4330   -3.9790    1.3850 c         1 MOL      0.510535
     51 O10        -3.7850   -5.1220    1.0880 o         1 MOL     -0.571720
     52 C18        -3.8970   -3.9890    4.0040 c3        1 MOL     -0.261453
     53 C19        -2.4550   -4.1070    4.5040 c         1 MOL      0.569065
     54 N6         -2.3040   -4.6990    5.6080 n         1 MOL     -0.693207
     55 O11        -1.3930   -3.7380    3.9560 o         1 MOL     -0.497449
     56 H20        -6.1610   -3.1300    2.9800 hn        1 MOL      0.327677
     57 H21        -3.4410   -2.2980    2.9630 h1        1 MOL      0.057226
     58 H22        -4.3290   -4.9870    3.8890 hc        1 MOL      0.076350
     59 H23        -4.5000   -3.5540    4.7950 hc        1 MOL      0.076350
     60 H24        -3.0710   -5.0080    6.1790 hn        1 MOL      0.341480
     61 H25        -1.3260   -4.6810    5.8740 hn        1 MOL      0.341480
     62 N7         -2.4080   -3.4170    0.8190 n         1 MOL     -0.311053
     63 C20        -1.7090   -3.8390   -0.3830 c3        1 MOL      0.029181
     64 C21        -2.0040   -3.0290   -1.6400 c         1 MOL      0.696535
     65 O12        -2.7380   -2.0800   -1.7260 o         1 MOL     -0.648325
     66 H26        -2.0120   -2.6060    1.2820 hn        1 MOL      0.190420
     67 H27        -2.0680   -4.8350   -0.6390 h1        1 MOL      0.071934
     68 H28        -0.6480   -3.8740   -0.1540 h1        1 MOL      0.071934
     69 N8         -1.3310   -3.4440   -2.7000 n         1 MOL     -0.386488
     70 C22        -0.3830   -4.5600   -2.8540 c3        1 MOL     -0.388858
     71 C23         0.9680   -4.3710   -2.1150 c         1 MOL      0.517858
     72 O13         1.5810   -5.3550   -1.8210 o         1 MOL     -0.547783
     73 C24        -0.0210   -4.7990   -4.3480 c3        1 MOL      0.453902
     74 C25        -1.1870   -5.3910   -5.1490 c3        1 MOL     -0.386687
     75 O14         0.4460   -3.6300   -4.9270 oh        1 MOL     -0.628644
     76 H29        -1.5200   -2.9620   -3.5600 hn        1 MOL      0.324060
     77 H30        -0.8190   -5.5240   -2.5720 h1        1 MOL      0.159939
     78 H31         0.7750   -5.5480   -4.4350 h1        1 MOL     -0.015577
     79 H32         0.8740   -3.9610   -5.7150 ho        1 MOL      0.397211
     80 H33        -1.0070   -5.5330   -6.2110 hc        1 MOL      0.094952
     81 H34        -1.4100   -6.3650   -4.7060 hc        1 MOL      0.094952
     82 H35        -2.0630   -4.7550   -5.0250 hc        1 MOL      0.094952
     83 N9          1.2830   -3.1780   -1.7260 n         1 MOL     -0.168561
     84 C26         2.5760   -2.7830   -1.0650 c3        1 MOL     -0.020706
     85 C27         2.3140   -2.0340    0.2550 c         1 MOL      0.729709
     86 O15         1.1620   -1.7070    0.5270 o         1 MOL     -0.578161
     87 C28         3.5270   -2.0450   -2.1120 c3        1 MOL      0.388915
     88 C29         2.8390   -0.8010   -2.6570 c3        1 MOL     -0.259356
     89 C30         3.9650   -3.0420   -3.1810 c3        1 MOL     -0.230050
     90 C31         3.3040    0.5510   -2.0190 c3        1 MOL      0.034866
     91 H36         0.6040   -2.4630   -1.9650 hn        1 MOL      0.177204
     92 H37         3.1030   -3.7210   -0.8900 h1        1 MOL      0.074111
     93 H38         4.3900   -1.7270   -1.5450 hc        1 MOL     -0.105293
     94 H39         1.7590   -0.7920   -2.5490 hc        1 MOL      0.043479
     95 H40         3.1080   -0.7670   -3.7080 hc        1 MOL      0.043479
     96 H41         4.8810   -2.7410   -3.6890 hc        1 MOL      0.034068
     97 H42         4.1070   -3.9720   -2.6340 hc        1 MOL      0.034068
     98 H43         3.0930   -3.1870   -3.8250 hc        1 MOL      0.034068
     99 H44         3.0570    1.4200   -2.6270 hc        1 MOL     -0.005997
    100 H45         2.8500    0.5990   -1.0270 hc        1 MOL     -0.005997
    101 H46         4.3970    0.5590   -2.0520 hc        1 MOL     -0.005997
    102 N10         3.3000   -1.8170    1.1400 n         1 MOL     -0.626936
    103 C32         4.7050   -2.2950    1.0600 c3        1 MOL     -0.039114
    104 C33         5.6910   -1.1020    1.0150 c         1 MOL      0.664444
    105 O16         5.8510   -0.3160    1.9850 o         1 MOL     -0.529766
    106 C34         5.0410   -3.2170    2.1890 c3        1 MOL     -0.176157
    107 C35         3.8420   -4.1380    2.5990 c         1 MOL      0.649556
    108 O17         3.5560   -4.2400    3.8220 o         1 MOL     -0.687677
    109 O18         3.2660   -4.8130    1.6840 o         1 MOL     -0.687677
    110 H47         3.0580   -1.3760    2.0190 hn        1 MOL      0.363874
    111 H48         4.8420   -2.8940    0.1670 h1        1 MOL      0.045174
    112 H49         5.3190   -2.6950    3.1000 hc        1 MOL      0.062795
    113 H50         5.9120   -3.8570    2.0240 hc        1 MOL      0.062795
    114 N11         6.4820   -0.9540   -0.0650 n         1 MOL     -0.657198
    115 C36         7.6130    0.0310   -0.2350 c3        1 MOL      0.553293
    116 C37         7.5350    0.7350   -1.6260 c         1 MOL      0.146717
    117 O19         6.8710    0.1500   -2.4790 o         1 MOL     -0.426084
    118 C38         8.8870   -0.6980    0.0070 c3        1 MOL     -0.277908
    119 C39         9.0520   -1.3510    1.3710 ca        1 MOL      0.167646
    120 C40         9.2110   -0.5760    2.5400 ca        1 MOL     -0.253122
    121 C41         8.8880   -2.7450    1.5880 ca        1 MOL     -0.253122
    122 C42         9.2930   -1.1980    3.7860 ca        1 MOL     -0.037019
    123 C43         8.9730   -3.3690    2.7990 ca        1 MOL     -0.037019
    124 C44         9.2870   -2.6000    3.8920 ca        1 MOL     -0.173037
    125 H51         6.4400   -1.6410   -0.8080 hn        1 MOL      0.310732
    126 H52         7.4280    0.7510    0.5650 h1        1 MOL      0.006230
    127 H53         9.6470    0.0980    0.0620 hc        1 MOL      0.066343
    128 H54         9.1760   -1.4620   -0.7130 hc        1 MOL      0.066343
    129 H55         9.1030    0.5020    2.5470 ha        1 MOL      0.130386
    130 H56         8.6390   -3.3440    0.7310 ha        1 MOL      0.130386
    131 H57         9.4020   -0.6010    4.6850 ha        1 MOL      0.101716
    132 H58         8.7320   -4.4160    2.9330 ha        1 MOL      0.101716
    133 H59         9.4460   -3.0270    4.8680 ha        1 MOL      0.104692
    134 N12         8.1110    1.9480   -1.8520 n         1 MOL     -0.049482
    135 C45         8.5270    2.8050   -0.7350 c3        1 MOL     -0.219492
    136 C46         7.4030    3.4710    0.0540 c         1 MOL      0.527606
    137 O20         7.5520    3.6220    1.3070 o         1 MOL     -0.549741
    138 C47         9.3970    3.8150   -1.4660 c3        1 MOL     -0.034371
    139 C48         8.7400    4.0310   -2.7640 c3        1 MOL     -0.068919
    140 C49         8.2200    2.6100   -3.1510 c3        1 MOL     -0.031671
    141 H60         9.1450    2.2630   -0.0260 h1        1 MOL      0.107080
    142 H61         9.4270    4.8080   -1.0010 hc        1 MOL      0.047979
    143 H62        10.4380    3.5060   -1.5260 hc        1 MOL      0.047979
    144 H63         7.9250    4.7590   -2.7120 hc        1 MOL      0.041887
    145 H64         9.4940    4.3250   -3.4920 hc        1 MOL      0.041887
    146 H65         7.2470    2.6100   -3.6390 h1        1 MOL      0.067453
    147 H66         8.9350    2.2390   -3.8750 h1        1 MOL      0.067453
    148 N13         6.2510    3.7420   -0.5760 n         1 MOL     -0.361179
    149 C50         5.1680    4.4380    0.0390 c3        1 MOL      0.079868
    150 C51         5.1890    5.9400   -0.1020 c         1 MOL      0.462695
    151 O21         5.0280    6.4370   -1.1940 o         1 MOL     -0.548471
    152 C52         3.8890    3.8980   -0.5760 c3        1 MOL      0.052131
    153 C53         2.7110    4.2810    0.2410 c3        1 MOL     -0.196468
    154 C54         1.4150    3.8480   -0.5160 c         1 MOL      0.630323
    155 O22         0.9530    2.7300   -0.2830 o         1 MOL     -0.665179
    156 O23         0.8670    4.5580   -1.3670 o         1 MOL     -0.665179
    157 H67         6.1590    3.4260   -1.5230 hn        1 MOL      0.270867
    158 H68         5.1530    4.2300    1.1090 h1        1 MOL      0.103364
    159 H69         3.9470    2.8100   -0.4880 hc        1 MOL      0.034328
    160 H70         3.7760    4.2730   -1.5920 hc        1 MOL      0.034328
    161 H71         2.6590    5.3730    0.1940 hc        1 MOL      0.014791
    162 H72         2.8150    4.0230    1.2940 hc        1 MOL      0.014791
    163 N14         5.5380    6.7890    0.9060 n         1 MOL     -0.385025
    164 C55         5.9350    6.5040    2.3360 c3        1 MOL     -0.016088
    165 H73         5.8440    5.4360    2.5320 h1        1 MOL      0.048545
    166 H74         6.9670    6.8160    2.4960 h1        1 MOL      0.048545
    167 H75         5.2790    7.0540    3.0120 h1        1 MOL      0.048545
    168 H76         5.5490    7.7570    0.6280 hn        1 MOL      0.271407
    169 Ca1        -3.3900    0.4050   -0.4430 Ca        1 MOL      1.746399
    170 O24        -1.7210    2.2470    0.4840 oh        1 MOL     -0.832063
    171 H77        -0.8110    2.4550    0.2550 ho        1 MOL      0.399422
    172 H78        -1.8140    2.5380    1.3900 ho        1 MOL      0.399422
    173 O25        -0.8670    0.5380   -1.6540 oh        1 MOL     -0.832063
    174 H79        -0.2140    0.9240   -1.0780 ho        1 MOL      0.399422
    175 H80        -0.6940    0.9390   -2.5120 ho        1 MOL      0.399422
    176 O26        -3.3440    2.5480   -1.9340 oh        1 MOL     -0.832063
    177 H81        -3.5590    2.2430   -2.8150 ho        1 MOL      0.399422
    178 H82        -2.8820    3.3850   -2.0780 ho        1 MOL      0.399422
    179 O27        -1.5060   -0.7460    1.1730 oh        1 MOL     -0.832063
    180 H83        -0.6070   -0.9550    0.9160 ho        1 MOL      0.399422
    181 H84        -1.4580   -0.6050    2.1180 ho        1 MOL      0.399422
@<TRIPOS>BOND
     1    1    2 1   
     2    1    4 1   
     3    1    5 1   
     4    1    6 1   
     5    2    3 2   
     6    2    7 1   
     7    7    8 1   
     8    7   15 1   
     9    8    9 1   
    10    8   11 1   
    11    8   16 1   
    12    9   10 2   
    13    9   19 1   
    14   11   12 1   
    15   11   17 1   
    16   11   18 1   
    17   12   13 1   
    18   12   14 1   
    19   19   20 1   
    20   19   24 1   
    21   20   21 1   
    22   20   23 1   
    23   20   25 1   
    24   21   22 2   
    25   21   29 1   
    26   23   26 1   
    27   23   27 1   
    28   23   28 1   
    29   29   30 1   
    30   29   37 1   
    31   30   31 1   
    32   30   33 1   
    33   30   38 1   
    34   31   32 2   
    35   31   41 1   
    36   33   34 1   
    37   33   39 1   
    38   33   40 1   
    39   34   35 1   
    40   34   36 1   
    41   41   42 1   
    42   41   45 1   
    43   42   43 1   
    44   42   46 1   
    45   42   47 1   
    46   43   44 2   
    47   43   48 1   
    48   48   49 1   
    49   48   56 1   
    50   49   50 1   
    51   49   52 1   
    52   49   57 1   
    53   50   51 2   
    54   50   62 1   
    55   52   53 1   
    56   52   58 1   
    57   52   59 1   
    58   53   54 1   
    59   53   55 2   
    60   54   60 1   
    61   54   61 1   
    62   62   63 1   
    63   62   66 1   
    64   63   64 1   
    65   63   67 1   
    66   63   68 1   
    67   64   65 2   
    68   64   69 1   
    69   69   70 1   
    70   69   76 1   
    71   70   71 1   
    72   70   73 1   
    73   70   77 1   
    74   71   72 2   
    75   71   83 1   
    76   73   74 1   
    77   73   75 1   
    78   73   78 1   
    79   74   80 1   
    80   74   81 1   
    81   74   82 1   
    82   75   79 1   
    83   83   84 1   
    84   83   91 1   
    85   84   85 1   
    86   84   87 1   
    87   84   92 1   
    88   85   86 2   
    89   85  102 1   
    90   87   88 1   
    91   87   89 1   
    92   87   93 1   
    93   88   90 1   
    94   88   94 1   
    95   88   95 1   
    96   89   96 1   
    97   89   97 1   
    98   89   98 1   
    99   90   99 1   
   100   90  100 1   
   101   90  101 1   
   102  102  103 1   
   103  102  110 1   
   104  103  104 1   
   105  103  106 1   
   106  103  111 1   
   107  104  105 2   
   108  104  114 1   
   109  106  107 1   
   110  106  112 1   
   111  106  113 1   
   112  107  108 1   
   113  107  109 1   
   114  114  115 1   
   115  114  125 1   
   116  115  116 1   
   117  115  118 1   
   118  115  126 1   
   119  116  117 2   
   120  116  134 1   
   121  118  119 1   
   122  118  127 1   
   123  118  128 1   
   124  119  120 ar  
   125  119  121 ar  
   126  120  122 ar  
   127  120  129 1   
   128  121  123 ar  
   129  121  130 1   
   130  122  124 ar  
   131  122  131 1   
   132  123  124 ar  
   133  123  132 1   
   134  124  133 1   
   135  134  135 1   
   136  134  140 1   
   137  135  136 1   
   138  135  138 1   
   139  135  141 1   
   140  136  137 2   
   141  136  148 1   
   142  138  139 1   
   143  138  142 1   
   144  138  143 1   
   145  139  140 1   
   146  139  144 1   
   147  139  145 1   
   148  140  146 1   
   149  140  147 1   
   150  148  149 1   
   151  148  157 1   
   152  149  150 1   
   153  149  152 1   
   154  149  158 1   
   155  150  151 2   
   156  150  163 1   
   157  152  153 1   
   158  152  159 1   
   159  152  160 1   
   160  153  154 1   
   161  153  161 1   
   162  153  162 1   
   163  154  155 1   
   164  154  156 1   
   165  163  164 1   
   166  163  168 1   
   167  164  165 1   
   168  164  166 1   
   169  164  167 1   
   170  170  171 1   
   171  170  172 1   
   172  173  174 1   
   173  173  175 1   
   174  176  177 1   
   175  176  178 1   
   176  179  180 1   
   177  179  181 1   
@<TRIPOS>SUBSTRUCTURE
     1 MOL         1 TEMP              0 ****  ****    0 ROOT
