@<TRIPOS>MOLECULE
MOL
  181   177     1     0     0
SMALL
resp


@<TRIPOS>ATOM
      1 C1          7.5860    0.7260    6.1370 c3        1 MOL     -0.267771
      2 C2          6.7280    0.2800    4.9400 c         1 MOL      0.695439
      3 O1          5.5540    0.5230    4.9600 o         1 MOL     -0.569375
      4 H1          7.3320    1.7520    6.4030 hc        1 MOL      0.065672
      5 H2          7.3920    0.0720    6.9880 hc        1 MOL      0.065672
      6 H3          8.6410    0.6710    5.8700 hc        1 MOL      0.065672
      7 N1          7.2590   -0.3990    3.9030 n         1 MOL     -0.482841
      8 C3          8.5880   -0.9360    3.6390 c3        1 MOL     -0.041049
      9 C4          8.5130   -2.3220    2.9140 c         1 MOL      0.421082
     10 O2          7.4680   -3.0050    3.0120 o         1 MOL     -0.397849
     11 C5          9.4780    0.0790    2.9100 c3        1 MOL     -0.104674
     12 C6          8.7970    0.6900    1.6410 c         1 MOL      0.527694
     13 O3          8.3770    1.8760    1.6780 o         1 MOL     -0.642034
     14 O4          8.6900    0.0330    0.5690 o         1 MOL     -0.642034
     15 H4          6.5330   -0.6740    3.2470 hn        1 MOL      0.305131
     16 H5          9.0290   -1.2000    4.5950 h1        1 MOL      0.101637
     17 H6         10.4870   -0.3060    2.7670 hc        1 MOL      0.023967
     18 H7          9.6050    0.8490    3.6560 hc        1 MOL      0.023967
     19 N2          9.5550   -2.6560    2.1750 n         1 MOL     -0.462448
     20 C7          9.5730   -3.8630    1.3540 c3        1 MOL      0.297367
     21 C8          8.3120   -4.1080    0.4610 c         1 MOL      0.346977
     22 O5          7.9060   -5.3000    0.3810 o         1 MOL     -0.516766
     23 C9          9.9340   -5.0210    2.3690 c3        1 MOL     -0.253151
     24 H8         10.4330   -2.1630    2.2200 hn        1 MOL      0.291414
     25 H9         10.3530   -3.7700    0.5940 h1        1 MOL      0.007285
     26 H10         9.1740   -5.0720    3.1480 hc        1 MOL      0.064853
     27 H11        10.1050   -5.9110    1.7700 hc        1 MOL      0.064853
     28 H12        10.8810   -4.7770    2.8420 hc        1 MOL      0.064853
     29 N3          7.6820   -3.0850   -0.1380 n         1 MOL     -0.232348
     30 C10         6.5680   -3.2410   -1.0610 c3        1 MOL      0.088511
     31 C11         6.4960   -2.2190   -2.1450 c         1 MOL      0.457249
     32 O6          6.8810   -1.0400   -1.9630 o         1 MOL     -0.568567
     33 C12         5.2350   -3.1800   -0.2110 c3        1 MOL     -0.185757
     34 C13         5.0480   -1.8390    0.6160 c         1 MOL      0.564742
     35 O7          4.1790   -1.8280    1.5000 o         1 MOL     -0.619032
     36 O8          5.8300   -0.8520    0.5590 o         1 MOL     -0.619032
     37 H13         8.0240   -2.1770    0.1360 hn        1 MOL      0.119762
     38 H14         6.6800   -4.1940   -1.5650 h1        1 MOL      0.024446
     39 H15         5.1960   -3.9980    0.5090 hc        1 MOL      0.066519
     40 H16         4.4580   -3.3160   -0.9640 hc        1 MOL      0.066519
     41 N4          5.9800   -2.6180   -3.3210 n         1 MOL     -0.314007
     42 C14         5.7610   -1.7310   -4.4580 c3        1 MOL     -0.450161
     43 C15         4.6210   -0.6690   -4.1800 c         1 MOL      0.597405
     44 O9          4.4110    0.2590   -4.9710 o         1 MOL     -0.539073
     45 H17         5.6600   -3.5700   -3.4160 hn        1 MOL      0.297548
     46 H18         5.5120   -2.3800   -5.2970 h1        1 MOL      0.204459
     47 H19         6.6270   -1.0950   -4.6120 h1        1 MOL      0.204459
     48 N5          3.8000   -0.9130   -3.1220 n         1 MOL     -0.366689
     49 C16         2.6450   -0.0880   -2.6460 c3        1 MOL     -0.172003
     50 C17         3.2620    1.2860   -2.2330 c         1 MOL      0.557806
     51 O10         4.3330    1.4190   -1.6390 o         1 MOL     -0.571070
     52 C18         1.8130   -0.7390   -1.5430 c3        1 MOL     -0.089593
     53 C19         0.8940   -1.8180   -2.0400 c         1 MOL      0.612964
     54 N6          0.7200   -2.8240   -1.2660 n         1 MOL     -0.708977
     55 O11         0.1830   -1.7280   -3.0210 o         1 MOL     -0.541137
     56 H20         3.7670   -1.8880   -2.8500 hn        1 MOL      0.280809
     57 H21         1.9870   -0.0020   -3.5120 h1        1 MOL      0.087763
     58 H22         1.1730    0.1120   -1.3040 hc        1 MOL      0.037394
     59 H23         2.5260   -1.0110   -0.7680 hc        1 MOL      0.037394
     60 H24         1.2410   -2.7800   -0.3910 hn        1 MOL      0.362547
     61 H25         0.0760   -3.5450   -1.5450 hn        1 MOL      0.362547
     62 N7          2.5960    2.3290   -2.7090 n         1 MOL     -0.137865
     63 C20         3.0110    3.6640   -2.5060 c3        1 MOL     -0.247812
     64 C21         1.9670    4.6630   -2.9230 c         1 MOL      0.691915
     65 O12         2.1560    5.1910   -4.0220 o         1 MOL     -0.569174
     66 H26         1.7950    2.1100   -3.2820 hn        1 MOL      0.259378
     67 H27         3.8490    3.7770   -3.1860 h1        1 MOL      0.094370
     68 H28         3.2800    3.8260   -1.4520 h1        1 MOL      0.094370
     69 N8          0.8490    4.8740   -2.1770 n         1 MOL     -0.596681
     70 C22         0.6020    4.4020   -0.8010 c3        1 MOL     -0.094791
     71 C23        -0.6280    3.4790   -0.7490 c         1 MOL      0.511176
     72 O13        -1.4550    3.4970   -1.6620 o         1 MOL     -0.462494
     73 C24         0.4610    5.5800    0.1830 c3        1 MOL      0.557817
     74 C25         1.6560    6.5780    0.1560 c3        1 MOL     -0.436991
     75 O14        -0.7670    6.2340   -0.0470 oh        1 MOL     -0.596826
     76 H29         0.1350    5.4950   -2.5140 hn        1 MOL      0.378942
     77 H30         1.4040    3.7870   -0.4100 h1        1 MOL      0.088224
     78 H31         0.5170    5.2000    1.2050 h1        1 MOL     -0.056188
     79 H32        -0.9470    6.7010    0.7610 ho        1 MOL      0.399180
     80 H33         1.8580    6.9780    1.1470 hc        1 MOL      0.094977
     81 H34         2.5470    6.1280   -0.2770 hc        1 MOL      0.094977
     82 H35         1.3620    7.3770   -0.5250 hc        1 MOL      0.094977
     83 N9         -0.7580    2.7170    0.3360 n         1 MOL     -0.647952
     84 C26        -2.1220    2.3100    0.7260 c3        1 MOL      0.371412
     85 C27        -2.8110    3.5750    1.3080 c         1 MOL      0.598574
     86 O15        -2.2150    4.3360    2.0730 o         1 MOL     -0.612935
     87 C28        -2.1040    1.1740    1.7230 c3        1 MOL      0.111635
     88 C29        -1.3410   -0.0960    1.3670 c3        1 MOL      0.103958
     89 C30        -3.4300    0.8070    2.3010 c3        1 MOL     -0.147017
     90 C31        -1.8010   -0.9070    0.1250 c3        1 MOL     -0.235127
     91 H36        -0.1270    2.8520    1.1090 hn        1 MOL      0.297526
     92 H37        -2.6390    1.9480   -0.1620 h1        1 MOL     -0.010175
     93 H38        -1.5860    1.6570    2.5510 hc        1 MOL     -0.070810
     94 H39        -1.4490   -0.7550    2.2250 hc        1 MOL     -0.028760
     95 H40        -0.2690    0.0730    1.3520 hc        1 MOL     -0.028760
     96 H41        -3.3430    0.0500    3.0740 hc        1 MOL      0.027083
     97 H42        -3.9260    1.7090    2.6750 hc        1 MOL      0.027083
     98 H43        -4.0540    0.4540    1.4760 hc        1 MOL      0.027083
     99 H44        -1.5320   -0.3440   -0.7630 hc        1 MOL      0.059656
    100 H45        -1.2320   -1.8410    0.1710 hc        1 MOL      0.059656
    101 H46        -2.8820   -0.9890    0.1660 hc        1 MOL      0.059656
    102 N10        -4.1530    3.8470    1.0670 n         1 MOL     -0.565767
    103 C32        -5.1380    3.1800    0.1710 c3        1 MOL      0.170774
    104 C33        -6.2410    2.3140    0.8660 c         1 MOL      0.629672
    105 O16        -6.3640    2.3680    2.1090 o         1 MOL     -0.533755
    106 C34        -5.7940    4.3190   -0.5560 c3        1 MOL     -0.325839
    107 C35        -6.3240    5.4740    0.2670 c         1 MOL      0.709616
    108 O17        -7.3540    5.3210    0.9670 o         1 MOL     -0.722022
    109 O18        -5.6880    6.5540    0.3390 o         1 MOL     -0.722022
    110 H47        -4.4600    4.6450    1.6100 hn        1 MOL      0.365702
    111 H48        -4.7460    2.5720   -0.6460 h1        1 MOL      0.020715
    112 H49        -6.7340    3.9520   -0.9480 hc        1 MOL      0.063721
    113 H50        -5.1380    4.7040   -1.3380 hc        1 MOL      0.063721
    114 N11        -7.1020    1.5840    0.1410 n         1 MOL     -0.660660
    115 C36        -8.1430    0.5630    0.5630 c3        1 MOL      0.238749
    116 C37        -8.8790    0.0400   -0.6920 c         1 MOL      0.354633
    117 O19        -9.3110    0.8270   -1.5240 o         1 MOL     -0.529778
    118 C38        -9.1720    1.0590    1.5630 c3        1 MOL     -0.140639
    119 C39       -10.2250    0.1250    2.0930 ca        1 MOL      0.011006
    120 C40       -11.4160   -0.1640    1.3590 ca        1 MOL     -0.103726
    121 C41       -10.1340   -0.2890    3.4970 ca        1 MOL     -0.103726
    122 C42       -12.4080   -0.9140    2.0000 ca        1 MOL     -0.131718
    123 C43       -11.1130   -1.0120    4.0920 ca        1 MOL     -0.131718
    124 C44       -12.2920   -1.2430    3.3750 ca        1 MOL     -0.145632
    125 H51        -7.1240    1.7660   -0.8470 hn        1 MOL      0.339733
    126 H52        -7.5550   -0.2680    0.9640 h1        1 MOL     -0.031334
    127 H53        -9.7420    1.9140    1.1940 hc        1 MOL      0.104644
    128 H54        -8.6440    1.4480    2.4290 hc        1 MOL      0.104644
    129 H55       -11.5450    0.2050    0.3570 ha        1 MOL      0.099210
    130 H56        -9.3130    0.0020    4.1280 ha        1 MOL      0.099210
    131 H57       -13.3380   -1.1950    1.5380 ha        1 MOL      0.102660
    132 H58       -11.0730   -1.4730    5.0740 ha        1 MOL      0.102660
    133 H59       -13.0170   -1.7710    3.9650 ha        1 MOL      0.092637
    134 N12        -9.1960   -1.2830   -0.7590 n         1 MOL      0.069563
    135 C45        -8.5090   -2.3490   -0.0680 c3        1 MOL      0.045104
    136 C46        -7.0570   -2.3240   -0.4900 c         1 MOL      0.541028
    137 O20        -6.5780   -1.4300   -1.2190 o         1 MOL     -0.534643
    138 C47        -9.2830   -3.5830   -0.4740 c3        1 MOL      0.043657
    139 C48        -9.7750   -3.3130   -1.8910 c3        1 MOL     -0.088081
    140 C49       -10.0720   -1.8390   -1.7460 c3        1 MOL      0.148989
    141 H60        -8.5470   -2.3010    1.0250 h1        1 MOL     -0.057706
    142 H61        -8.6680   -4.4460   -0.2120 hc        1 MOL     -0.036319
    143 H62       -10.1710   -3.5830    0.1640 hc        1 MOL     -0.036319
    144 H63        -8.9450   -3.4390   -2.5850 hc        1 MOL      0.044339
    145 H64       -10.6700   -3.8970   -2.0860 hc        1 MOL      0.044339
    146 H65        -9.9590   -1.3400   -2.7050 h1        1 MOL     -0.030369
    147 H66       -11.0710   -1.6810   -1.3460 h1        1 MOL     -0.030369
    148 N13        -6.2130   -3.2400   -0.0530 n         1 MOL     -0.304427
    149 C50        -4.7840   -3.4000   -0.2800 c3        1 MOL      0.054200
    150 C51        -3.9420   -4.3010    0.7580 c         1 MOL      0.385533
    151 O21        -2.9620   -5.0170    0.3220 o         1 MOL     -0.526665
    152 C52        -4.3820   -3.6970   -1.7420 c3        1 MOL     -0.147708
    153 C53        -4.7840   -5.0340   -2.4030 c3        1 MOL     -0.057023
    154 C54        -6.2780   -5.0650   -2.8480 c         1 MOL      0.634950
    155 O22        -6.9840   -6.0350   -2.4830 o         1 MOL     -0.710857
    156 O23        -6.8100   -4.1340   -3.5550 o         1 MOL     -0.710857
    157 H67        -6.5950   -4.0880    0.3430 hn        1 MOL      0.258098
    158 H68        -4.4750   -2.3820   -0.0310 h1        1 MOL      0.053884
    159 H69        -3.3030   -3.5860   -1.8720 hc        1 MOL      0.069478
    160 H70        -4.7140   -2.9010   -2.4050 hc        1 MOL      0.069478
    161 H71        -4.5680   -5.8330   -1.6940 hc        1 MOL     -0.003431
    162 H72        -4.0660   -5.2320   -3.1940 hc        1 MOL     -0.003431
    163 N14        -4.4540   -4.4460    1.9420 n         1 MOL     -0.316941
    164 C55        -5.3630   -3.5190    2.7590 c3        1 MOL     -0.073253
    165 H73        -5.0990   -2.4810    2.5540 h1        1 MOL      0.068291
    166 H74        -6.4020   -3.6900    2.4800 h1        1 MOL      0.068291
    167 H75        -5.2320   -3.7240    3.8220 h1        1 MOL      0.068291
    168 H76        -4.1420   -5.3180    2.3470 hn        1 MOL      0.257499
    169 Ca1         6.7350    1.1910   -0.6180 Ca        1 MOL      1.742485
    170 O24         9.2430    1.9670   -1.4860 oh        1 MOL     -0.837900
    171 H77         9.7630    1.3010   -1.0380 ho        1 MOL      0.412116
    172 H78         9.8870    2.5740   -1.8510 ho        1 MOL      0.412116
    173 O25         7.0280    3.9830   -0.7940 oh        1 MOL     -0.837900
    174 H79         7.0420    4.7560   -0.2310 ho        1 MOL      0.412116
    175 H80         7.5520    4.2280   -1.5530 ho        1 MOL      0.412116
    176 O26         6.7920    2.0020   -3.1610 oh        1 MOL     -0.837900
    177 H81         7.6120    2.3890   -3.4530 ho        1 MOL      0.412116
    178 H82         6.1740    2.1960   -3.8600 ho        1 MOL      0.412116
    179 O27         5.3640    2.1850    1.4410 oh        1 MOL     -0.837900
    180 H83         5.9700    2.4660    2.1260 ho        1 MOL      0.412116
    181 H84         4.6330    1.7790    1.9240 ho        1 MOL      0.412116
@<TRIPOS>BOND
     1    1    2 1   
     2    1    4 1   
     3    1    5 1   
     4    1    6 1   
     5    2    3 2   
     6    2    7 1   
     7    7    8 1   
     8    7   15 1   
     9    8    9 1   
    10    8   11 1   
    11    8   16 1   
    12    9   10 2   
    13    9   19 1   
    14   11   12 1   
    15   11   17 1   
    16   11   18 1   
    17   12   13 1   
    18   12   14 1   
    19   19   20 1   
    20   19   24 1   
    21   20   21 1   
    22   20   23 1   
    23   20   25 1   
    24   21   22 2   
    25   21   29 1   
    26   23   26 1   
    27   23   27 1   
    28   23   28 1   
    29   29   30 1   
    30   29   37 1   
    31   30   31 1   
    32   30   33 1   
    33   30   38 1   
    34   31   32 2   
    35   31   41 1   
    36   33   34 1   
    37   33   39 1   
    38   33   40 1   
    39   34   35 1   
    40   34   36 1   
    41   41   42 1   
    42   41   45 1   
    43   42   43 1   
    44   42   46 1   
    45   42   47 1   
    46   43   44 2   
    47   43   48 1   
    48   48   49 1   
    49   48   56 1   
    50   49   50 1   
    51   49   52 1   
    52   49   57 1   
    53   50   51 2   
    54   50   62 1   
    55   52   53 1   
    56   52   58 1   
    57   52   59 1   
    58   53   54 1   
    59   53   55 2   
    60   54   60 1   
    61   54   61 1   
    62   62   63 1   
    63   62   66 1   
    64   63   64 1   
    65   63   67 1   
    66   63   68 1   
    67   64   65 2   
    68   64   69 1   
    69   69   70 1   
    70   69   76 1   
    71   70   71 1   
    72   70   73 1   
    73   70   77 1   
    74   71   72 2   
    75   71   83 1   
    76   73   74 1   
    77   73   75 1   
    78   73   78 1   
    79   74   80 1   
    80   74   81 1   
    81   74   82 1   
    82   75   79 1   
    83   83   84 1   
    84   83   91 1   
    85   84   85 1   
    86   84   87 1   
    87   84   92 1   
    88   85   86 2   
    89   85  102 1   
    90   87   88 1   
    91   87   89 1   
    92   87   93 1   
    93   88   90 1   
    94   88   94 1   
    95   88   95 1   
    96   89   96 1   
    97   89   97 1   
    98   89   98 1   
    99   90   99 1   
   100   90  100 1   
   101   90  101 1   
   102  102  103 1   
   103  102  110 1   
   104  103  104 1   
   105  103  106 1   
   106  103  111 1   
   107  104  105 2   
   108  104  114 1   
   109  106  107 1   
   110  106  112 1   
   111  106  113 1   
   112  107  108 1   
   113  107  109 1   
   114  114  115 1   
   115  114  125 1   
   116  115  116 1   
   117  115  118 1   
   118  115  126 1   
   119  116  117 2   
   120  116  134 1   
   121  118  119 1   
   122  118  127 1   
   123  118  128 1   
   124  119  120 ar  
   125  119  121 ar  
   126  120  122 ar  
   127  120  129 1   
   128  121  123 ar  
   129  121  130 1   
   130  122  124 ar  
   131  122  131 1   
   132  123  124 ar  
   133  123  132 1   
   134  124  133 1   
   135  134  135 1   
   136  134  140 1   
   137  135  136 1   
   138  135  138 1   
   139  135  141 1   
   140  136  137 2   
   141  136  148 1   
   142  138  139 1   
   143  138  142 1   
   144  138  143 1   
   145  139  140 1   
   146  139  144 1   
   147  139  145 1   
   148  140  146 1   
   149  140  147 1   
   150  148  149 1   
   151  148  157 1   
   152  149  150 1   
   153  149  152 1   
   154  149  158 1   
   155  150  151 2   
   156  150  163 1   
   157  152  153 1   
   158  152  159 1   
   159  152  160 1   
   160  153  154 1   
   161  153  161 1   
   162  153  162 1   
   163  154  155 1   
   164  154  156 1   
   165  163  164 1   
   166  163  168 1   
   167  164  165 1   
   168  164  166 1   
   169  164  167 1   
   170  170  171 1   
   171  170  172 1   
   172  173  174 1   
   173  173  175 1   
   174  176  177 1   
   175  176  178 1   
   176  179  180 1   
   177  179  181 1   
@<TRIPOS>SUBSTRUCTURE
     1 MOL         1 TEMP              0 ****  ****    0 ROOT
