@<TRIPOS>MOLECULE
MOL
  181   177     1     0     0
SMALL
resp


@<TRIPOS>ATOM
      1 C1         -2.2870   -5.7150   -2.7240 c3        1 MOL     -0.384857
      2 C2         -3.6850   -5.7980   -2.1590 c         1 MOL      0.609059
      3 O1         -3.9870   -6.6550   -1.3100 o         1 MOL     -0.565886
      4 H1         -1.9200   -4.6930   -2.6340 hc        1 MOL      0.103772
      5 H2         -1.6300   -6.3880   -2.1710 hc        1 MOL      0.103772
      6 H3         -2.3020   -6.0040   -3.7750 hc        1 MOL      0.103772
      7 N1         -4.6600   -5.0750   -2.7070 n         1 MOL     -0.493825
      8 C3         -5.9910   -4.9890   -2.2110 c3        1 MOL      0.355014
      9 C4         -6.1130   -4.0390   -0.9630 c         1 MOL      0.190331
     10 O2         -6.7810   -2.9820   -0.9510 o         1 MOL     -0.354445
     11 C5         -6.8520   -4.5480   -3.4140 c3        1 MOL     -0.259890
     12 C6         -8.3800   -4.6260   -3.1550 c         1 MOL      0.690052
     13 O3         -8.7740   -4.9100   -1.9750 o         1 MOL     -0.717548
     14 O4         -9.1880   -4.3860   -4.0810 o         1 MOL     -0.717548
     15 H4         -4.4080   -4.4920   -3.4960 hn        1 MOL      0.267144
     16 H5         -6.3660   -5.9720   -1.9220 h1        1 MOL      0.026615
     17 H6         -6.6050   -5.1170   -4.3110 hc        1 MOL      0.022009
     18 H7         -6.6930   -3.4860   -3.6190 hc        1 MOL      0.022009
     19 N2         -5.4820   -4.5110    0.1230 n         1 MOL     -0.339978
     20 C7         -5.4620   -3.9440    1.4600 c3        1 MOL      0.650035
     21 C8         -4.0260   -3.4760    1.8280 c         1 MOL      0.135950
     22 O5         -3.0590   -4.1550    1.5750 o         1 MOL     -0.505506
     23 C9         -6.3570   -4.7590    2.4420 c3        1 MOL     -0.433335
     24 H8         -4.9300   -5.3430   -0.0770 hn        1 MOL      0.153475
     25 H9         -6.1060   -3.0650    1.4270 h1        1 MOL     -0.109157
     26 H10        -6.1520   -4.4210    3.4530 hc        1 MOL      0.095745
     27 H11        -7.4180   -4.6390    2.2200 hc        1 MOL      0.095745
     28 H12        -6.1720   -5.8310    2.3460 hc        1 MOL      0.095745
     29 N3         -3.7790   -2.4080    2.5090 n         1 MOL     -0.041431
     30 C10        -4.6870   -1.4830    3.1650 c3        1 MOL     -0.130074
     31 C11        -5.2670   -0.4700    2.1610 c         1 MOL      0.534287
     32 O6         -4.4900   -0.0120    1.3020 o         1 MOL     -0.466967
     33 C12        -4.0370   -0.7770    4.3950 c3        1 MOL     -0.191276
     34 C13        -2.6030   -0.3550    4.1140 c         1 MOL      0.714764
     35 O7         -1.6440   -1.1910    4.1890 o         1 MOL     -0.714761
     36 O8         -2.2950    0.7940    3.7430 o         1 MOL     -0.714761
     37 H13        -2.8020   -2.3350    2.7590 hn        1 MOL      0.170383
     38 H14        -5.5230   -2.0780    3.5410 h1        1 MOL      0.072959
     39 H15        -4.0840   -1.4560    5.2440 hc        1 MOL      0.049913
     40 H16        -4.6240    0.0680    4.7530 hc        1 MOL      0.049913
     41 N4         -6.5610   -0.1050    2.3940 n         1 MOL     -0.463816
     42 C14        -7.2780    0.9980    1.6360 c3        1 MOL      0.054041
     43 C15        -7.5070    0.8400    0.1750 c         1 MOL      0.535347
     44 O9         -7.8380   -0.2700   -0.3140 o         1 MOL     -0.473305
     45 H17        -7.0100   -0.5100    3.1970 hn        1 MOL      0.294086
     46 H18        -6.8120    1.9550    1.8780 h1        1 MOL      0.045953
     47 H19        -8.2310    1.1140    2.1400 h1        1 MOL      0.045953
     48 N5         -7.3470    1.9070   -0.5620 n         1 MOL     -0.562329
     49 C16        -6.4140    3.0720   -0.2850 c3        1 MOL     -0.025103
     50 C17        -5.8490    3.6290   -1.6210 c         1 MOL      0.748123
     51 O10        -6.4950    3.6480   -2.6480 o         1 MOL     -0.515658
     52 C18        -7.0550    4.1880    0.5730 c3        1 MOL     -0.278919
     53 C19        -8.1110    5.0070   -0.1820 c         1 MOL      0.612537
     54 N6         -9.2880    4.5560   -0.3410 n         1 MOL     -0.699582
     55 O11        -7.8240    6.1670   -0.5500 o         1 MOL     -0.573711
     56 H20        -7.6100    1.7930   -1.5360 hn        1 MOL      0.325197
     57 H21        -5.5840    2.7040    0.3050 h1        1 MOL      0.108182
     58 H22        -6.2500    4.7900    0.9950 hc        1 MOL      0.101278
     59 H23        -7.5980    3.7550    1.4070 hc        1 MOL      0.101278
     60 H24        -9.5380    3.5970   -0.1220 hn        1 MOL      0.348180
     61 H25       -10.0090    5.1690   -0.6710 hn        1 MOL      0.348180
     62 N7         -4.5810    4.1190   -1.5590 n         1 MOL     -0.602182
     63 C20        -4.0230    4.9400   -2.6040 c3        1 MOL     -0.033060
     64 C21        -2.5810    5.4200   -2.4300 c         1 MOL      0.483463
     65 O12        -2.0180    6.1120   -3.2840 o         1 MOL     -0.533488
     66 H26        -4.0470    4.1350   -0.7020 hn        1 MOL      0.320664
     67 H27        -4.7460    5.7120   -2.8470 h1        1 MOL      0.102153
     68 H28        -3.9990    4.3530   -3.5250 h1        1 MOL      0.102153
     69 N8         -1.9060    4.9690   -1.3110 n         1 MOL     -0.268879
     70 C22        -0.4960    5.3610   -1.0050 c3        1 MOL      0.008024
     71 C23         0.4260    4.1910   -0.7770 c         1 MOL      0.382306
     72 O13         0.0890    3.1110   -0.2160 o         1 MOL     -0.505766
     73 C24        -0.3960    6.4160    0.0720 c3        1 MOL      0.374695
     74 C25        -1.0360    7.7620   -0.3170 c3        1 MOL     -0.331620
     75 O14        -1.0570    6.0050    1.2390 oh        1 MOL     -0.607824
     76 H29        -2.3690    4.3780   -0.6310 hn        1 MOL      0.209244
     77 H30        -0.1860    5.8460   -1.9280 h1        1 MOL      0.085197
     78 H31         0.6440    6.6610    0.2800 h1        1 MOL     -0.004438
     79 H32        -0.4490    5.4300    1.6990 ho        1 MOL      0.402255
     80 H33        -2.1210    7.8150   -0.2350 hc        1 MOL      0.083453
     81 H34        -0.6090    8.5650    0.2920 hc        1 MOL      0.083453
     82 H35        -0.7560    7.9170   -1.3580 hc        1 MOL      0.083453
     83 N9          1.6700    4.4160   -1.2190 n         1 MOL     -0.364220
     84 C26         2.7770    3.4870   -1.1860 c3        1 MOL     -0.192321
     85 C27         3.4970    3.6910    0.1260 c         1 MOL      0.556818
     86 O15         4.0440    4.7720    0.3760 o         1 MOL     -0.597915
     87 C28         3.6830    3.6150   -2.4510 c3        1 MOL      0.349379
     88 C29         4.9230    2.6420   -2.4090 c3        1 MOL      0.252795
     89 C30         2.7840    3.4760   -3.7020 c3        1 MOL     -0.485065
     90 C31         6.0080    3.1210   -3.4130 c3        1 MOL     -0.192750
     91 H36         1.8170    5.3710   -1.5250 hn        1 MOL      0.250239
     92 H37         2.3560    2.4770   -1.1810 h1        1 MOL      0.241338
     93 H38         4.1210    4.6150   -2.4310 hc        1 MOL     -0.056277
     94 H39         4.5130    1.6620   -2.6630 hc        1 MOL     -0.089034
     95 H40         5.3110    2.7170   -1.3840 hc        1 MOL     -0.089034
     96 H41         2.2980    4.4050   -3.9890 hc        1 MOL      0.107549
     97 H42         3.2920    3.0750   -4.5830 hc        1 MOL      0.107549
     98 H43         1.9940    2.7560   -3.5090 hc        1 MOL      0.107549
     99 H44         6.5450    2.2410   -3.7600 hc        1 MOL      0.026900
    100 H45         5.5660    3.4590   -4.3450 hc        1 MOL      0.026900
    101 H46         6.6160    3.8810   -2.9390 hc        1 MOL      0.026900
    102 N10         3.7340    2.6090    0.8850 n         1 MOL     -0.314047
    103 C32         4.6150    2.6610    2.0770 c3        1 MOL      0.051961
    104 C33         5.7500    1.5120    2.1110 c         1 MOL      0.425372
    105 O16         6.6050    1.4990    2.9750 o         1 MOL     -0.534887
    106 C34         3.7400    2.5710    3.3780 c3        1 MOL     -0.126067
    107 C35         2.6300    1.5280    3.3940 c         1 MOL      0.771502
    108 O17         1.4000    1.8970    3.4070 o         1 MOL     -0.764739
    109 O18         2.8880    0.3220    3.3360 o         1 MOL     -0.764739
    110 H47         3.2670    1.7560    0.6340 hn        1 MOL      0.246970
    111 H48         5.2320    3.5620    2.0520 h1        1 MOL      0.093797
    112 H49         3.2550    3.5110    3.6060 hc        1 MOL      0.023519
    113 H50         4.3700    2.4400    4.2550 hc        1 MOL      0.023519
    114 N11         5.8110    0.5280    1.1520 n         1 MOL     -0.325450
    115 C36         6.9160   -0.4000    1.0620 c3        1 MOL      0.071775
    116 C37         6.3490   -1.6100    0.2180 c         1 MOL      0.322105
    117 O19         6.6600   -1.7810   -0.9770 o         1 MOL     -0.450324
    118 C38         8.0120    0.3620    0.2440 c3        1 MOL     -0.190272
    119 C39         9.3800   -0.3190    0.0200 ca        1 MOL      0.115073
    120 C40         9.6730   -1.5940    0.6250 ca        1 MOL     -0.190741
    121 C41        10.4010    0.3400   -0.7720 ca        1 MOL     -0.190741
    122 C42        10.9220   -2.2250    0.3300 ca        1 MOL     -0.066579
    123 C43        11.6060   -0.3170   -1.0780 ca        1 MOL     -0.066579
    124 C44        11.8640   -1.5890   -0.5070 ca        1 MOL     -0.204938
    125 H51         5.0860    0.6340    0.4570 hn        1 MOL      0.222047
    126 H52         7.2170   -0.7720    2.0410 h1        1 MOL      0.102979
    127 H53         8.3130    1.2360    0.8210 hc        1 MOL      0.103667
    128 H54         7.6140    0.7590   -0.6950 hc        1 MOL      0.103667
    129 H55         8.9380   -2.0040    1.3000 ha        1 MOL      0.113226
    130 H56        10.2420    1.3310   -1.1960 ha        1 MOL      0.113226
    131 H57        11.1160   -3.1980    0.7650 ha        1 MOL      0.099862
    132 H58        12.3020    0.1940   -1.7250 ha        1 MOL      0.099862
    133 H59        12.7710   -2.0790   -0.8420 ha        1 MOL      0.112622
    134 N12         5.4950   -2.5220    0.8120 n         1 MOL     -0.101962
    135 C45         4.9700   -3.7140    0.2230 c3        1 MOL     -0.100767
    136 C46         4.2970   -3.6700   -1.1760 c         1 MOL      0.270653
    137 O20         4.2070   -4.6410   -1.9080 o         1 MOL     -0.495102
    138 C47         3.9470   -4.2370    1.1750 c3        1 MOL      0.152285
    139 C48         4.4300   -3.6690    2.5080 c3        1 MOL     -0.250074
    140 C49         4.9230   -2.2840    2.1500 c3        1 MOL      0.057112
    141 H60         5.7500   -4.4780    0.1510 h1        1 MOL      0.083637
    142 H61         2.9360   -4.0220    0.8450 hc        1 MOL      0.011195
    143 H62         3.9640   -5.3310    1.1940 hc        1 MOL      0.011195
    144 H63         3.5970   -3.6840    3.2060 hc        1 MOL      0.055056
    145 H64         5.3070   -4.2390    2.8420 hc        1 MOL      0.055056
    146 H65         4.0880   -1.5830    2.1050 h1        1 MOL      0.064909
    147 H66         5.7660   -1.9340    2.7360 h1        1 MOL      0.064909
    148 N13         3.8750   -2.4960   -1.5830 n         1 MOL     -0.028582
    149 C50         3.2390   -2.1630   -2.8650 c3        1 MOL     -0.281199
    150 C51         4.3160   -2.3280   -3.9940 c         1 MOL      0.495982
    151 O21         4.0900   -3.0200   -5.0200 o         1 MOL     -0.550112
    152 C52         2.4990   -0.8280   -2.8380 c3        1 MOL     -0.009076
    153 C53         1.4400   -0.6160   -1.7610 c3        1 MOL     -0.092233
    154 C54         2.1350   -0.4970   -0.4310 c         1 MOL      0.751319
    155 O22         1.7780   -1.1480    0.5930 o         1 MOL     -0.804742
    156 O23         3.1310    0.2350   -0.3360 o         1 MOL     -0.804742
    157 H67         4.0760   -1.7090   -0.9840 hn        1 MOL      0.329686
    158 H68         2.4640   -2.8990   -3.0350 h1        1 MOL      0.148179
    159 H69         2.0120   -0.6960   -3.7940 hc        1 MOL      0.021949
    160 H70         3.2060    0.0070   -2.7650 hc        1 MOL      0.021949
    161 H71         0.7820   -1.4810   -1.7100 hc        1 MOL      0.036447
    162 H72         0.8300    0.2700   -1.9770 hc        1 MOL      0.036447
    163 N14         5.5080   -1.7710   -3.7620 n         1 MOL     -0.147977
    164 C55         6.6220   -1.9910   -4.6790 c3        1 MOL     -0.228599
    165 H73         6.7910   -1.0900   -5.2680 h1        1 MOL      0.093663
    166 H74         7.5210   -2.2260   -4.1100 h1        1 MOL      0.093663
    167 H75         6.3870   -2.8210   -5.3460 h1        1 MOL      0.093663
    168 H76         5.7050   -1.3790   -2.8500 hn        1 MOL      0.167405
    169 Ca1         0.4830   -0.6850    2.8100 Ca        1 MOL      1.792870
    170 O24        -1.4530   -1.7140    1.2580 oh        1 MOL     -0.846556
    171 H77        -1.7810   -2.6120    1.2600 ho        1 MOL      0.409729
    172 H78        -1.7880   -1.3460    0.4390 ho        1 MOL      0.409729
    173 O25         0.7660   -0.7970    5.5210 oh        1 MOL     -0.846556
    174 H79         1.4820   -0.9160    6.1370 ho        1 MOL      0.409729
    175 H80        -0.0180   -1.0080    6.0290 ho        1 MOL      0.409729
    176 O26         0.7570   -3.2600    3.3320 oh        1 MOL     -0.846556
    177 H81         1.3090   -3.7460    3.9560 ho        1 MOL      0.409729
    178 H82         0.3020   -3.9380    2.8380 ho        1 MOL      0.409729
    179 O27        -0.6410    1.2060    1.4720 oh        1 MOL     -0.846556
    180 H83        -0.3260    2.0300    1.0950 ho        1 MOL      0.409729
    181 H84        -1.2530    1.4830    2.1560 ho        1 MOL      0.409729
@<TRIPOS>BOND
     1    1    2 1   
     2    1    4 1   
     3    1    5 1   
     4    1    6 1   
     5    2    3 2   
     6    2    7 1   
     7    7    8 1   
     8    7   15 1   
     9    8    9 1   
    10    8   11 1   
    11    8   16 1   
    12    9   10 2   
    13    9   19 1   
    14   11   12 1   
    15   11   17 1   
    16   11   18 1   
    17   12   13 1   
    18   12   14 1   
    19   19   20 1   
    20   19   24 1   
    21   20   21 1   
    22   20   23 1   
    23   20   25 1   
    24   21   22 2   
    25   21   29 1   
    26   23   26 1   
    27   23   27 1   
    28   23   28 1   
    29   29   30 1   
    30   29   37 1   
    31   30   31 1   
    32   30   33 1   
    33   30   38 1   
    34   31   32 2   
    35   31   41 1   
    36   33   34 1   
    37   33   39 1   
    38   33   40 1   
    39   34   35 1   
    40   34   36 1   
    41   41   42 1   
    42   41   45 1   
    43   42   43 1   
    44   42   46 1   
    45   42   47 1   
    46   43   44 2   
    47   43   48 1   
    48   48   49 1   
    49   48   56 1   
    50   49   50 1   
    51   49   52 1   
    52   49   57 1   
    53   50   51 2   
    54   50   62 1   
    55   52   53 1   
    56   52   58 1   
    57   52   59 1   
    58   53   54 1   
    59   53   55 2   
    60   54   60 1   
    61   54   61 1   
    62   62   63 1   
    63   62   66 1   
    64   63   64 1   
    65   63   67 1   
    66   63   68 1   
    67   64   65 2   
    68   64   69 1   
    69   69   70 1   
    70   69   76 1   
    71   70   71 1   
    72   70   73 1   
    73   70   77 1   
    74   71   72 2   
    75   71   83 1   
    76   73   74 1   
    77   73   75 1   
    78   73   78 1   
    79   74   80 1   
    80   74   81 1   
    81   74   82 1   
    82   75   79 1   
    83   83   84 1   
    84   83   91 1   
    85   84   85 1   
    86   84   87 1   
    87   84   92 1   
    88   85   86 2   
    89   85  102 1   
    90   87   88 1   
    91   87   89 1   
    92   87   93 1   
    93   88   90 1   
    94   88   94 1   
    95   88   95 1   
    96   89   96 1   
    97   89   97 1   
    98   89   98 1   
    99   90   99 1   
   100   90  100 1   
   101   90  101 1   
   102  102  103 1   
   103  102  110 1   
   104  103  104 1   
   105  103  106 1   
   106  103  111 1   
   107  104  105 2   
   108  104  114 1   
   109  106  107 1   
   110  106  112 1   
   111  106  113 1   
   112  107  108 1   
   113  107  109 1   
   114  114  115 1   
   115  114  125 1   
   116  115  116 1   
   117  115  118 1   
   118  115  126 1   
   119  116  117 2   
   120  116  134 1   
   121  118  119 1   
   122  118  127 1   
   123  118  128 1   
   124  119  120 ar  
   125  119  121 ar  
   126  120  122 ar  
   127  120  129 1   
   128  121  123 ar  
   129  121  130 1   
   130  122  124 ar  
   131  122  131 1   
   132  123  124 ar  
   133  123  132 1   
   134  124  133 1   
   135  134  135 1   
   136  134  140 1   
   137  135  136 1   
   138  135  138 1   
   139  135  141 1   
   140  136  137 2   
   141  136  148 1   
   142  138  139 1   
   143  138  142 1   
   144  138  143 1   
   145  139  140 1   
   146  139  144 1   
   147  139  145 1   
   148  140  146 1   
   149  140  147 1   
   150  148  149 1   
   151  148  157 1   
   152  149  150 1   
   153  149  152 1   
   154  149  158 1   
   155  150  151 2   
   156  150  163 1   
   157  152  153 1   
   158  152  159 1   
   159  152  160 1   
   160  153  154 1   
   161  153  161 1   
   162  153  162 1   
   163  154  155 1   
   164  154  156 1   
   165  163  164 1   
   166  163  168 1   
   167  164  165 1   
   168  164  166 1   
   169  164  167 1   
   170  170  171 1   
   171  170  172 1   
   172  173  174 1   
   173  173  175 1   
   174  176  177 1   
   175  176  178 1   
   176  179  180 1   
   177  179  181 1   
@<TRIPOS>SUBSTRUCTURE
     1 MOL         1 TEMP              0 ****  ****    0 ROOT
