@<TRIPOS>MOLECULE
MOL
  195   189     1     0     0
SMALL
resp


@<TRIPOS>ATOM
      1 C1         -3.5730    6.3030    1.8100 c3        1 MOL     -0.409798
      2 C2         -5.0560    6.1340    1.4200 c         1 MOL      0.693241
      3 O1         -5.5810    6.9250    0.6470 o         1 MOL     -0.559831
      4 H1         -3.3850    5.7910    2.7530 hc        1 MOL      0.106074
      5 H2         -2.9420    5.8750    1.0320 hc        1 MOL      0.106074
      6 H3         -3.3450    7.3630    1.9210 hc        1 MOL      0.106074
      7 N1         -5.7940    5.1520    1.9650 n         1 MOL     -0.705693
      8 C3         -7.1640    4.6800    1.6830 c3        1 MOL      0.407511
      9 C4         -7.2850    3.9220    0.2550 c         1 MOL      0.345065
     10 O2         -6.4620    4.0300   -0.6750 o         1 MOL     -0.457403
     11 C5         -8.0910    5.9170    1.8880 c3        1 MOL     -0.200583
     12 C6         -9.5380    5.5840    2.1660 c         1 MOL      0.732225
     13 O3         -9.7320    4.4070    2.5310 o         1 MOL     -0.725559
     14 O4        -10.3910    6.5050    2.1640 o         1 MOL     -0.725559
     15 H4         -5.2740    4.6100    2.6440 hn        1 MOL      0.315920
     16 H5         -7.2840    3.9150    2.4460 h1        1 MOL     -0.003126
     17 H6         -8.0080    6.5290    0.9990 hc        1 MOL      0.053534
     18 H7         -7.7370    6.4790    2.7520 hc        1 MOL      0.053534
     19 N2         -8.4720    3.2090    0.2000 n         1 MOL     -0.437373
     20 C7         -8.9000    2.3500   -0.9590 c3        1 MOL      0.373336
     21 C8         -8.0760    1.1570   -1.3760 c         1 MOL      0.352974
     22 O5         -7.9740    0.7990   -2.5100 o         1 MOL     -0.511115
     23 C9         -9.2420    3.2420   -2.1010 c3        1 MOL     -0.075352
     24 C10       -10.2460    4.3410   -1.7630 c3        1 MOL     -0.026765
     25 C11       -11.6560    3.8980   -1.2670 c3        1 MOL     -0.563192
     26 C12       -12.4660    5.1270   -0.9040 c3        1 MOL      0.147373
     27 N3        -12.9180    5.8290   -2.1040 n4        1 MOL     -0.283149
     28 H8         -8.9610    3.1400    1.0780 hn        1 MOL      0.224683
     29 H9         -9.7960    1.8530   -0.5940 h1        1 MOL     -0.011349
     30 H10        -9.5850    2.7280   -3.0000 hc        1 MOL      0.032863
     31 H11        -8.3140    3.7390   -2.3910 hc        1 MOL      0.032863
     32 H12       -10.3160    5.0230   -2.6080 hc        1 MOL      0.055163
     33 H13        -9.8900    5.0490   -1.0050 hc        1 MOL      0.055163
     34 H14       -11.6600    3.3640   -0.3090 hc        1 MOL      0.184075
     35 H15       -12.0850    3.2740   -2.0470 hc        1 MOL      0.184075
     36 H16       -11.8690    5.7680   -0.2550 hx        1 MOL      0.087391
     37 H17       -13.3610    4.8330   -0.3550 hx        1 MOL      0.087391
     38 H18       -12.2230    6.3870   -2.5880 hn        1 MOL      0.296577
     39 H19       -13.1590    5.1730   -2.8310 hn        1 MOL      0.296577
     40 H20       -13.7020    6.4370   -1.9240 hn        1 MOL      0.296577
     41 N4         -7.3960    0.5600   -0.3880 n         1 MOL     -0.411895
     42 C13        -6.5030   -0.5840   -0.5250 c3        1 MOL      0.249310
     43 C14        -6.4750   -1.4840    0.7530 c         1 MOL      0.412476
     44 O6         -6.5080   -0.8630    1.8170 o         1 MOL     -0.544628
     45 C15        -5.1650    0.0040   -0.8570 c3        1 MOL     -0.468946
     46 C16        -4.1030   -0.9940   -1.1830 c         1 MOL      0.693106
     47 O7         -2.9300   -0.6390   -0.9450 o         1 MOL     -0.683178
     48 O8         -4.3170   -2.1060   -1.7300 o         1 MOL     -0.683178
     49 H21        -7.6810    0.8280    0.5410 hn        1 MOL      0.239600
     50 H22        -6.9710   -1.2170   -1.2840 h1        1 MOL      0.061191
     51 H23        -4.8890    0.6810   -0.0580 hc        1 MOL      0.162590
     52 H24        -5.2980    0.5830   -1.7730 hc        1 MOL      0.162590
     53 N5         -6.5620   -2.7880    0.6510 n         1 MOL     -0.332071
     54 C17        -6.6830   -3.6470   -0.5110 c3        1 MOL     -0.059285
     55 C18        -5.7530   -4.9020   -0.4300 c         1 MOL      0.525414
     56 O9         -5.9100   -5.6470    0.5630 o         1 MOL     -0.578231
     57 H25        -6.5790   -3.3010    1.5130 hn        1 MOL      0.276869
     58 H26        -6.4320   -3.1050   -1.4270 h1        1 MOL      0.058558
     59 H27        -7.6940   -3.9860   -0.7520 h1        1 MOL      0.058558
     60 N6         -4.9410   -5.1060   -1.4200 n         1 MOL     -0.266031
     61 C19        -4.0000   -6.2250   -1.4420 c3        1 MOL     -0.279774
     62 C20        -2.7060   -5.8690   -0.7020 c         1 MOL      0.714629
     63 O10        -2.1670   -4.7680   -0.7240 o         1 MOL     -0.703234
     64 C21        -3.6700   -6.4480   -2.9980 c3        1 MOL     -0.053846
     65 C22        -3.5810   -5.1760   -3.8450 c         1 MOL      0.553012
     66 O11        -2.8310   -4.2230   -3.5710 o         1 MOL     -0.639040
     67 O12        -4.2910   -5.1140   -4.8690 o         1 MOL     -0.639040
     68 H28        -4.8990   -4.4090   -2.1450 hn        1 MOL      0.309776
     69 H29        -4.4630   -7.1370   -1.0700 h1        1 MOL      0.139831
     70 H30        -4.3640   -7.1590   -3.4480 hc        1 MOL      0.026572
     71 H31        -2.7060   -6.9540   -3.0680 hc        1 MOL      0.026572
     72 N7         -2.2950   -6.8290    0.1000 n         1 MOL     -0.347203
     73 C23        -1.0340   -6.8040    0.7880 c3        1 MOL     -0.096432
     74 C24        -0.6530   -5.5190    1.6840 c         1 MOL      0.453362
     75 O13         0.4930   -5.2360    2.0290 o         1 MOL     -0.542419
     76 H32        -2.7640   -7.7230   -0.0140 hn        1 MOL      0.265013
     77 H33        -0.2510   -6.8410    0.0180 h1        1 MOL      0.084202
     78 H34        -0.9800   -7.6810    1.4250 h1        1 MOL      0.084202
     79 N8         -1.6740   -4.8210    2.0830 n         1 MOL     -0.154118
     80 C25        -1.4800   -3.4640    2.7470 c3        1 MOL     -0.351870
     81 C26        -0.9290   -2.3960    1.8490 c         1 MOL      0.543388
     82 O14        -1.1850   -2.3560    0.6490 o         1 MOL     -0.453769
     83 C27        -2.7870   -2.9170    3.4500 c3        1 MOL      0.178280
     84 C28        -3.8430   -2.5030    2.5480 c3        1 MOL      0.032896
     85 O15        -3.3450   -4.0130    4.2690 oh        1 MOL     -0.569787
     86 H35        -2.5760   -5.2300    1.9040 hn        1 MOL      0.222708
     87 H36        -0.7670   -3.6280    3.5590 h1        1 MOL      0.164245
     88 H37        -2.6340   -2.0320    4.0670 h1        1 MOL      0.045979
     89 H38        -2.6150   -4.3320    4.8060 ho        1 MOL      0.371576
     90 H39        -4.7150   -2.1830    3.1250 hc        1 MOL      0.037838
     91 H40        -3.4990   -1.7220    1.8570 hc        1 MOL      0.037838
     92 H41        -4.1310   -3.3310    1.9010 hc        1 MOL      0.037838
     93 N9         -0.0930   -1.4950    2.3580 n         1 MOL     -0.233115
     94 C29         0.1120   -0.1590    1.7620 c3        1 MOL     -0.241836
     95 C30         1.4370   -0.0870    0.9850 c         1 MOL      0.606939
     96 O16         1.6790    0.6500    0.0750 o         1 MOL     -0.555765
     97 C31        -0.0730    1.0120    2.7660 c3        1 MOL      0.162684
     98 C32         0.7710    0.7750    4.0220 c3        1 MOL      0.025389
     99 C33        -1.5640    1.1790    3.2230 c3        1 MOL     -0.169848
    100 C34         0.9100    2.0130    4.9230 c3        1 MOL     -0.257447
    101 H42         0.2140   -1.6140    3.3110 hn        1 MOL      0.192363
    102 H43        -0.6990    0.0120    1.0500 h1        1 MOL      0.127962
    103 H44         0.3100    1.8920    2.2470 hc        1 MOL      0.044722
    104 H45         1.7970    0.5200    3.7540 hc        1 MOL      0.022661
    105 H46         0.3940   -0.0130    4.6810 hc        1 MOL      0.022661
    106 H47        -2.2110    0.7680    2.4480 hc        1 MOL      0.040138
    107 H48        -1.7840    0.6360    4.1380 hc        1 MOL      0.040138
    108 H49        -1.8400    2.2150    3.4080 hc        1 MOL      0.040138
    109 H50         1.4160    1.8860    5.8730 hc        1 MOL      0.067033
    110 H51         1.3120    2.7990    4.2800 hc        1 MOL      0.067033
    111 H52        -0.0830    2.3970    5.1710 hc        1 MOL      0.067033
    112 N10         2.2780   -1.1510    1.2080 n         1 MOL     -0.314225
    113 C35         3.6090   -1.3810    0.6450 c3        1 MOL     -0.066858
    114 C36         4.6960   -1.4180    1.6340 c         1 MOL      0.584135
    115 O17         4.4940   -1.8370    2.7780 o         1 MOL     -0.527725
    116 C37         3.6920   -2.5840   -0.2830 c3        1 MOL      0.662855
    117 C38         3.3620   -3.8630    0.4300 c3        1 MOL     -0.628390
    118 O18         3.0290   -2.5090   -1.4860 oh        1 MOL     -0.744931
    119 H53         1.9590   -1.8370    1.8790 hn        1 MOL      0.149254
    120 H54         3.7830   -0.4840    0.0520 h1        1 MOL      0.042921
    121 H55         4.7460   -2.5560   -0.5920 h1        1 MOL     -0.059434
    122 H56         3.2550   -1.6950   -1.9480 ho        1 MOL      0.406794
    123 H57         4.2300   -4.0310    1.0780 hc        1 MOL      0.168462
    124 H58         2.5180   -3.8540    1.1180 hc        1 MOL      0.168462
    125 H59         3.2670   -4.6320   -0.3360 hc        1 MOL      0.168462
    126 N11         5.9750   -1.1210    1.3110 n         1 MOL     -0.454101
    127 C39         7.1290   -0.9640    2.1600 c3        1 MOL      0.029409
    128 C40         8.0900    0.1590    1.7340 c         1 MOL      0.602740
    129 O19         8.4770    0.9390    2.6220 o         1 MOL     -0.543864
    130 C41         7.9070   -2.3080    2.1870 c3        1 MOL      0.119700
    131 C42         8.8670   -2.3900    3.3580 c3        1 MOL     -0.372247
    132 O20         8.6710   -2.6360    0.9690 oh        1 MOL     -0.651138
    133 H60         6.1430   -0.8170    0.3550 hn        1 MOL      0.220079
    134 H61         6.8520   -0.7390    3.1900 h1        1 MOL      0.121112
    135 H62         7.1390   -3.0770    2.2690 h1        1 MOL      0.086134
    136 H63         9.1510   -3.4530    1.1120 ho        1 MOL      0.419715
    137 H64         8.2960   -2.2600    4.2810 hc        1 MOL      0.113499
    138 H65         9.3090   -3.3760    3.4600 hc        1 MOL      0.113499
    139 H66         9.6810   -1.6830    3.2200 hc        1 MOL      0.113499
    140 N12         8.4090    0.2760    0.4070 n         1 MOL     -0.539132
    141 C43         9.3160    1.3190   -0.1090 c3        1 MOL      0.101198
    142 C44         8.7830    2.1330   -1.2710 c         1 MOL      0.517844
    143 O21         7.9530    1.6590   -2.0420 o         1 MOL     -0.569576
    144 C45        10.6380    0.6270   -0.5750 c3        1 MOL     -0.139560
    145 C46        11.4240    0.0530    0.6550 c3        1 MOL     -0.057308
    146 C47        12.5860   -0.9620    0.4360 c3        1 MOL     -0.071958
    147 C48        13.4680   -0.3890   -0.6750 c3        1 MOL      0.046946
    148 N13        14.5960   -1.2960   -1.0610 n4        1 MOL     -0.334638
    149 H67         8.0820   -0.5060   -0.1530 hn        1 MOL      0.324029
    150 H68         9.5130    2.0870    0.6400 h1        1 MOL      0.115662
    151 H69        11.2180    1.2530   -1.2540 hc        1 MOL      0.058025
    152 H70        10.4460   -0.1970   -1.2650 hc        1 MOL      0.058025
    153 H71        10.7060   -0.5130    1.2530 hc        1 MOL      0.077586
    154 H72        11.7890    0.8540    1.3000 hc        1 MOL      0.077586
    155 H73        12.0560   -1.8600    0.1110 hc        1 MOL      0.033432
    156 H74        13.1110   -1.1720    1.3690 hc        1 MOL      0.033432
    157 H75        13.9220    0.5020   -0.2380 hx        1 MOL      0.098046
    158 H76        12.7800   -0.1220   -1.4740 hx        1 MOL      0.098046
    159 H77        14.3130   -2.2050   -1.4080 hn        1 MOL      0.317209
    160 H78        15.2450   -0.8810   -1.7110 hn        1 MOL      0.317209
    161 H79        15.1410   -1.4870   -0.2250 hn        1 MOL      0.317209
    162 N14         9.3280    3.3150   -1.3340 n         1 MOL     -0.205643
    163 C49         9.0620    4.4020   -2.3550 c3        1 MOL      0.108657
    164 C50         7.5990    4.8430   -2.5750 c         1 MOL      0.302444
    165 O22         7.2410    5.1320   -3.7270 o         1 MOL     -0.525912
    166 C51         9.8960    5.6160   -2.2070 c3        1 MOL     -0.056751
    167 C52        11.3760    5.2900   -2.4690 c3        1 MOL     -0.171485
    168 C53        12.1140    5.1850   -1.0900 c         1 MOL      0.628795
    169 O23        11.9230    4.1770   -0.3550 o         1 MOL     -0.669690
    170 O24        12.8970    6.1000   -0.7430 o         1 MOL     -0.669690
    171 H80        10.2320    3.2960   -0.8960 hn        1 MOL      0.060395
    172 H81         9.3320    4.0550   -3.3530 h1        1 MOL      0.042546
    173 H82         9.7020    6.2270   -1.3320 hc        1 MOL      0.073452
    174 H83         9.6590    6.2890   -3.0380 hc        1 MOL      0.073452
    175 H84        11.7920    6.0330   -3.1420 hc        1 MOL      0.029016
    176 H85        11.5490    4.3150   -2.9150 hc        1 MOL      0.029016
    177 N15         6.7840    5.0690   -1.5720 n         1 MOL     -0.253017
    178 C54         6.9390    5.0430   -0.0990 c3        1 MOL     -0.152409
    179 H86         7.2920    4.0590    0.2110 h1        1 MOL      0.083410
    180 H87         7.6620    5.7990    0.2040 h1        1 MOL      0.083410
    181 H88         5.9780    5.2490    0.3720 h1        1 MOL      0.083410
    182 H89         5.9060    5.4810   -1.8430 hn        1 MOL      0.266930
    183 Ca1        -1.5760   -2.5510   -2.0560 Ca        1 MOL      1.637321
    184 O25        -2.7450   -0.7400   -3.9000 oh        1 MOL     -0.801433
    185 H90        -3.4180   -1.1790   -4.4070 ho        1 MOL      0.403692
    186 H91        -2.9740    0.1870   -3.9540 ho        1 MOL      0.403692
    187 O26        -0.2320   -2.5400   -4.4870 oh        1 MOL     -0.801433
    188 H92         0.3180   -3.3110   -4.6550 ho        1 MOL      0.403692
    189 H93        -0.0260   -1.9350   -5.1980 ho        1 MOL      0.403692
    190 O27         0.1670   -0.6470   -1.8490 oh        1 MOL     -0.801433
    191 H94         0.8670   -0.4390   -1.2180 ho        1 MOL      0.403692
    192 H95         0.3490   -0.0940   -2.6040 ho        1 MOL      0.403692
    193 O28         0.5790   -3.9100   -1.5790 oh        1 MOL     -0.801433
    194 H96         0.6580   -4.8450   -1.7840 ho        1 MOL      0.403692
    195 H97         1.4660   -3.5660   -1.6670 ho        1 MOL      0.403692
@<TRIPOS>BOND
     1    1    2 1   
     2    1    4 1   
     3    1    5 1   
     4    1    6 1   
     5    2    3 2   
     6    2    7 1   
     7    7    8 1   
     8    7   15 1   
     9    8    9 1   
    10    8   11 1   
    11    8   16 1   
    12    9   10 2   
    13    9   19 1   
    14   11   12 1   
    15   11   17 1   
    16   11   18 1   
    17   12   13 1   
    18   12   14 1   
    19   19   20 1   
    20   19   28 1   
    21   20   21 1   
    22   20   23 1   
    23   20   29 1   
    24   21   22 2   
    25   21   41 1   
    26   23   24 1   
    27   23   30 1   
    28   23   31 1   
    29   24   25 1   
    30   24   32 1   
    31   24   33 1   
    32   25   26 1   
    33   25   34 1   
    34   25   35 1   
    35   26   27 1   
    36   26   36 1   
    37   26   37 1   
    38   27   38 1   
    39   27   39 1   
    40   27   40 1   
    41   41   42 1   
    42   41   49 1   
    43   42   43 1   
    44   42   45 1   
    45   42   50 1   
    46   43   44 2   
    47   43   53 1   
    48   45   46 1   
    49   45   51 1   
    50   45   52 1   
    51   46   47 1   
    52   46   48 1   
    53   53   54 1   
    54   53   57 1   
    55   54   55 1   
    56   54   58 1   
    57   54   59 1   
    58   55   56 2   
    59   55   60 1   
    60   60   61 1   
    61   60   68 1   
    62   61   62 1   
    63   61   64 1   
    64   61   69 1   
    65   62   63 2   
    66   62   72 1   
    67   64   65 1   
    68   64   70 1   
    69   64   71 1   
    70   65   66 1   
    71   65   67 1   
    72   72   73 1   
    73   72   76 1   
    74   73   74 1   
    75   73   77 1   
    76   73   78 1   
    77   74   75 2   
    78   74   79 1   
    79   79   80 1   
    80   79   86 1   
    81   80   81 1   
    82   80   83 1   
    83   80   87 1   
    84   81   82 2   
    85   81   93 1   
    86   83   84 1   
    87   83   85 1   
    88   83   88 1   
    89   84   90 1   
    90   84   91 1   
    91   84   92 1   
    92   85   89 1   
    93   93   94 1   
    94   93  101 1   
    95   94   95 1   
    96   94   97 1   
    97   94  102 1   
    98   95   96 2   
    99   95  112 1   
   100   97   98 1   
   101   97   99 1   
   102   97  103 1   
   103   98  100 1   
   104   98  104 1   
   105   98  105 1   
   106   99  106 1   
   107   99  107 1   
   108   99  108 1   
   109  100  109 1   
   110  100  110 1   
   111  100  111 1   
   112  112  113 1   
   113  112  119 1   
   114  113  114 1   
   115  113  116 1   
   116  113  120 1   
   117  114  115 2   
   118  114  126 1   
   119  116  117 1   
   120  116  118 1   
   121  116  121 1   
   122  117  123 1   
   123  117  124 1   
   124  117  125 1   
   125  118  122 1   
   126  126  127 1   
   127  126  133 1   
   128  127  128 1   
   129  127  130 1   
   130  127  134 1   
   131  128  129 2   
   132  128  140 1   
   133  130  131 1   
   134  130  132 1   
   135  130  135 1   
   136  131  137 1   
   137  131  138 1   
   138  131  139 1   
   139  132  136 1   
   140  140  141 1   
   141  140  149 1   
   142  141  142 1   
   143  141  144 1   
   144  141  150 1   
   145  142  143 2   
   146  142  162 1   
   147  144  145 1   
   148  144  151 1   
   149  144  152 1   
   150  145  146 1   
   151  145  153 1   
   152  145  154 1   
   153  146  147 1   
   154  146  155 1   
   155  146  156 1   
   156  147  148 1   
   157  147  157 1   
   158  147  158 1   
   159  148  159 1   
   160  148  160 1   
   161  148  161 1   
   162  162  163 1   
   163  162  171 1   
   164  163  164 1   
   165  163  166 1   
   166  163  172 1   
   167  164  165 2   
   168  164  177 1   
   169  166  167 1   
   170  166  173 1   
   171  166  174 1   
   172  167  168 1   
   173  167  175 1   
   174  167  176 1   
   175  168  169 1   
   176  168  170 1   
   177  177  178 1   
   178  177  182 1   
   179  178  179 1   
   180  178  180 1   
   181  178  181 1   
   182  184  185 1   
   183  184  186 1   
   184  187  188 1   
   185  187  189 1   
   186  190  191 1   
   187  190  192 1   
   188  193  194 1   
   189  193  195 1   
@<TRIPOS>SUBSTRUCTURE
     1 MOL         1 TEMP              0 ****  ****    0 ROOT
