@<TRIPOS>MOLECULE
MOL
  191   184     1     0     0
SMALL
resp


@<TRIPOS>ATOM
      1 C1          8.5410    5.9280    0.9900 c3        1 MOL     -0.361131
      2 C2          8.9830    4.5170    1.1610 c         1 MOL      0.761777
      3 O1          8.8870    3.9630    2.2590 o         1 MOL     -0.587895
      4 H1          9.3570    6.5990    1.2580 hc        1 MOL      0.081474
      5 H2          8.2590    6.0970   -0.0490 hc        1 MOL      0.081474
      6 H3          7.6850    6.1220    1.6370 hc        1 MOL      0.081474
      7 N1          9.6430    4.0050    0.1030 n         1 MOL     -0.647902
      8 C3         10.3050    2.6400    0.2390 c3        1 MOL      0.064581
      9 C4          9.5470    1.6030   -0.4940 c         1 MOL      0.695000
     10 O2          9.0860    1.8790   -1.5630 o         1 MOL     -0.553407
     11 C5         11.7490    2.8020   -0.1820 c3        1 MOL     -0.098841
     12 C6         12.6630    1.5140   -0.1380 c         1 MOL      0.619330
     13 O3         13.6060    1.4880   -0.9660 o         1 MOL     -0.670524
     14 O4         12.4700    0.5980    0.7170 o         1 MOL     -0.670524
     15 H4          9.9190    4.5820   -0.6840 hn        1 MOL      0.342590
     16 H5         10.3330    2.3570    1.2910 h1        1 MOL      0.057156
     17 H6         12.2720    3.6470    0.2710 hc        1 MOL      0.025550
     18 H7         11.6940    3.1360   -1.2200 hc        1 MOL      0.025550
     19 N2          9.4200    0.3440    0.0060 n         1 MOL     -0.548987
     20 C7          8.3840   -0.5550   -0.4360 c3        1 MOL      0.198647
     21 C8          7.0190   -0.3220    0.2050 c         1 MOL      0.556472
     22 O5          7.0050    0.5370    1.1050 o         1 MOL     -0.513463
     23 C9          8.8130   -2.0490   -0.1930 c3        1 MOL     -0.096780
     24 C10         8.9370   -2.4320    1.3060 c3        1 MOL      0.344769
     25 C11         9.9410   -3.4800    1.7040 c3        1 MOL     -0.297245
     26 C12         9.8360   -4.7810    0.9090 c3        1 MOL      0.166729
     27 N3         10.6710   -5.8510    1.5290 n4        1 MOL     -0.277445
     28 H8          9.8280    0.1690    0.9150 hn        1 MOL      0.240914
     29 H9          8.2900   -0.3490   -1.5020 h1        1 MOL      0.033370
     30 H10         9.8090   -2.0980   -0.6100 hc        1 MOL      0.005908
     31 H11         8.1490   -2.6820   -0.7820 hc        1 MOL      0.005908
     32 H12         7.9620   -2.8380    1.5470 hc        1 MOL     -0.068602
     33 H13         8.9790   -1.5100    1.8870 hc        1 MOL     -0.068602
     34 H14         9.8890   -3.6610    2.7840 hc        1 MOL      0.103810
     35 H15        10.9290   -3.0740    1.4720 hc        1 MOL      0.103810
     36 H16        10.1710   -4.6070   -0.1090 hx        1 MOL      0.043021
     37 H17         8.8060   -5.1330    0.8410 hx        1 MOL      0.043021
     38 H18        10.5060   -6.0820    2.4980 hn        1 MOL      0.257267
     39 H19        10.5660   -6.7550    1.0790 hn        1 MOL      0.257267
     40 H20        11.6490   -5.6160    1.4990 hn        1 MOL      0.257267
     41 N4          5.9610   -0.9940   -0.2080 n         1 MOL     -0.643456
     42 C13         4.6700   -0.9050    0.5760 c3        1 MOL      0.222319
     43 C14         4.0920   -2.3400    0.8740 c         1 MOL      0.534194
     44 O6          4.2890   -3.2040   -0.0060 o         1 MOL     -0.499556
     45 C15         3.7430   -0.0470   -0.2080 c3        1 MOL     -0.081030
     46 C16         2.3880    0.2000    0.3930 c         1 MOL      0.471301
     47 O7          1.4920   -0.6490    0.2470 o         1 MOL     -0.611412
     48 O8          2.1220    1.2750    0.9820 o         1 MOL     -0.611412
     49 H21         6.0620   -1.7030   -0.9360 hn        1 MOL      0.335478
     50 H22         4.9100   -0.4090    1.5100 h1        1 MOL      0.013810
     51 H23         3.5950   -0.4630   -1.2010 hc        1 MOL      0.052403
     52 H24         4.1960    0.9460   -0.3300 hc        1 MOL      0.052403
     53 N5          3.2330   -2.4880    1.9050 n         1 MOL     -0.527991
     54 C17         2.6120   -3.7120    2.3000 c3        1 MOL      0.026269
     55 C18         1.5100   -4.2820    1.4140 c         1 MOL      0.418259
     56 O9          1.2190   -5.4620    1.4380 o         1 MOL     -0.543331
     57 H25         3.1000   -1.6960    2.5290 hn        1 MOL      0.304758
     58 H26         2.2800   -3.6370    3.3350 h1        1 MOL      0.085053
     59 H27         3.2490   -4.5870    2.4060 h1        1 MOL      0.085053
     60 N6          0.8150   -3.4670    0.6540 n         1 MOL     -0.214077
     61 C19        -0.0450   -3.8790   -0.5130 c3        1 MOL      0.103385
     62 C20         0.3730   -3.2410   -1.9210 c         1 MOL      0.435581
     63 O10        -0.3660   -3.3540   -2.8930 o         1 MOL     -0.505514
     64 C21        -1.5180   -3.6840   -0.1040 c3        1 MOL     -0.232492
     65 C22        -1.8720   -4.4620    1.2110 c         1 MOL      0.698101
     66 N7         -2.1450   -5.7210    1.0230 n         1 MOL     -0.750855
     67 O11        -1.8830   -3.9290    2.3110 o         1 MOL     -0.582392
     68 H28         1.1010   -2.5060    0.7140 hn        1 MOL     -0.019922
     69 H29        -0.0010   -4.9600   -0.6540 h1        1 MOL      0.071135
     70 H30        -2.1630   -3.9820   -0.9360 hc        1 MOL      0.079318
     71 H31        -1.7100   -2.6350    0.1020 hc        1 MOL      0.079318
     72 H32        -1.9840   -6.1620    0.1290 hn        1 MOL      0.376256
     73 H33        -2.1050   -6.3240    1.8360 hn        1 MOL      0.376256
     74 N8          1.5450   -2.4660   -2.0020 n         1 MOL     -0.121946
     75 C23         2.0440   -2.0680   -3.3000 c3        1 MOL     -0.281935
     76 C24         1.6210   -0.6180   -3.6980 c         1 MOL      0.588479
     77 O12         1.7720   -0.1350   -4.8270 o         1 MOL     -0.523106
     78 H34         2.1530   -2.4280   -1.2000 hn        1 MOL      0.170076
     79 H35         1.5870   -2.7220   -4.0390 h1        1 MOL      0.123359
     80 H36         3.1210   -2.0660   -3.3080 h1        1 MOL      0.123359
     81 N9          1.0970    0.1030   -2.6780 n         1 MOL     -0.309579
     82 C25         0.3410    1.2480   -2.7640 c3        1 MOL     -0.163976
     83 C26        -0.9370    1.0900   -1.9460 c         1 MOL      0.443439
     84 O13        -0.7980    0.6280   -0.7910 o         1 MOL     -0.564930
     85 C27         1.1710    2.4820   -2.4630 c3        1 MOL     -0.179494
     86 C28         0.4370    3.8360   -2.2940 ca        1 MOL     -0.052976
     87 C29        -0.2500    4.3880   -3.3880 ca        1 MOL     -0.070147
     88 C30         0.3320    4.4810   -1.0460 ca        1 MOL     -0.070147
     89 C31        -1.1380    5.4460   -3.2050 ca        1 MOL     -0.282619
     90 C32        -0.3890    5.6770   -0.9460 ca        1 MOL     -0.282619
     91 C33        -1.1550    6.1560   -2.0480 ca        1 MOL      0.411593
     92 O14        -1.8520    7.3530   -1.9320 oh        1 MOL     -0.538452
     93 H37         1.0670   -0.3320   -1.7660 hn        1 MOL      0.291585
     94 H38        -0.0040    1.4720   -3.7760 h1        1 MOL      0.087396
     95 H39         1.9010    2.6130   -3.2560 hc        1 MOL      0.126467
     96 H40         1.6470    2.2280   -1.5160 hc        1 MOL      0.126467
     97 H41         0.0450    4.0500   -4.3660 ha        1 MOL      0.128732
     98 H42         0.7770    4.1730   -0.1160 ha        1 MOL      0.128732
     99 H43        -1.7150    5.7900   -4.0420 ha        1 MOL      0.141965
    100 H44        -0.4850    6.2650   -0.0480 ha        1 MOL      0.141965
    101 H45        -2.1630    7.5410   -1.0410 ho        1 MOL      0.386490
    102 N10        -2.1290    1.4640   -2.5000 n         1 MOL     -0.197552
    103 C34        -3.4690    1.2170   -1.9410 c3        1 MOL      0.011809
    104 C35        -3.8540   -0.2850   -2.0380 c         1 MOL      0.475177
    105 O15        -4.2900   -0.8660   -1.0550 o         1 MOL     -0.495493
    106 C36        -4.4450    2.2260   -2.5540 c3        1 MOL      0.088785
    107 C37        -4.2670    3.6460   -1.9160 c3        1 MOL      0.013997
    108 C38        -5.9340    1.7960   -2.3530 c3        1 MOL     -0.497895
    109 C39        -4.6580    4.7500   -2.8980 c3        1 MOL     -0.262801
    110 H46        -2.1960    1.8520   -3.4200 hn        1 MOL      0.189503
    111 H47        -3.4210    1.4270   -0.8730 h1        1 MOL      0.001750
    112 H48        -4.3010    2.3270   -3.6300 hc        1 MOL      0.021244
    113 H49        -3.2420    3.7670   -1.5630 hc        1 MOL      0.020754
    114 H50        -4.9760    3.6430   -1.0810 hc        1 MOL      0.020754
    115 H51        -6.4650    2.4930   -2.9990 hc        1 MOL      0.151628
    116 H52        -6.1730    0.7930   -2.7050 hc        1 MOL      0.151628
    117 H53        -6.3420    2.0840   -1.3830 hc        1 MOL      0.151628
    118 H54        -5.7230    4.5800   -3.0800 hc        1 MOL      0.077334
    119 H55        -4.5600    5.7180   -2.4130 hc        1 MOL      0.077334
    120 H56        -4.1000    4.6820   -3.8260 hc        1 MOL      0.077334
    121 N11        -3.6860   -0.8650   -3.2030 n         1 MOL     -0.314049
    122 C40        -3.8850   -2.3200   -3.3080 c3        1 MOL     -0.037799
    123 C41        -5.3860   -2.7800   -3.1140 c         1 MOL      0.588209
    124 O16        -5.5820   -3.8390   -2.5520 o         1 MOL     -0.511920
    125 C42        -3.5200   -2.8420   -4.7250 c3        1 MOL      0.092671
    126 O17        -4.1900   -2.1420   -5.6950 oh        1 MOL     -0.632863
    127 H57        -3.4330   -0.2850   -3.9920 hn        1 MOL      0.278655
    128 H58        -3.3300   -2.8790   -2.5490 h1        1 MOL      0.066519
    129 H59        -3.6600   -3.9200   -4.7970 h1        1 MOL      0.062204
    130 H60        -2.4650   -2.6590   -4.9410 h1        1 MOL      0.062204
    131 H61        -4.1200   -2.6920   -6.4790 ho        1 MOL      0.433525
    132 N12        -6.2790   -1.8750   -3.4850 n         1 MOL     -0.423817
    133 C43        -7.6500   -1.8060   -3.0580 c3        1 MOL      0.238601
    134 C44        -7.9020   -2.0750   -1.4350 c         1 MOL      0.409757
    135 O18        -8.9280   -2.5960   -1.0070 o         1 MOL     -0.506874
    136 C45        -8.5590   -2.6690   -3.9620 c3        1 MOL     -0.580086
    137 H62        -5.9680   -1.0420   -3.9610 hn        1 MOL      0.277264
    138 H63        -7.8200   -0.7340   -3.1860 h1        1 MOL      0.024910
    139 H64        -8.2460   -3.6730   -3.6820 hc        1 MOL      0.169000
    140 H65        -9.5920   -2.4950   -3.6450 hc        1 MOL      0.169000
    141 H66        -8.2540   -2.4050   -4.9750 hc        1 MOL      0.169000
    142 N13        -7.0530   -1.5300   -0.6160 n         1 MOL     -0.397271
    143 C46        -7.1880   -1.5200    0.8200 c3        1 MOL      0.569924
    144 C47        -7.4920   -0.1290    1.3490 c         1 MOL      0.282381
    145 O19        -7.1680    0.8850    0.6890 o         1 MOL     -0.488252
    146 C48        -6.0160   -2.1580    1.6070 c3        1 MOL     -0.076603
    147 H67        -6.1730   -1.1990   -1.0040 hn        1 MOL      0.098002
    148 H68        -8.0330   -2.0880    1.1980 h1        1 MOL     -0.077242
    149 H69        -6.0670   -3.2300    1.3930 hc        1 MOL      0.007216
    150 H70        -5.0660   -1.7630    1.2290 hc        1 MOL      0.007216
    151 H71        -6.0200   -1.9580    2.6740 hc        1 MOL      0.007216
    152 N14        -8.0440   -0.0520    2.5680 n         1 MOL     -0.462456
    153 C49        -8.2380    1.2540    3.2630 c3        1 MOL     -0.047365
    154 C50        -8.8530    2.3850    2.3710 c         1 MOL      0.457133
    155 O20        -8.5960    3.5710    2.6200 o         1 MOL     -0.501984
    156 C51        -6.8770    1.7130    4.0110 c3        1 MOL      0.070495
    157 C52        -6.4850    0.6860    5.0900 c3        1 MOL     -0.163950
    158 C53        -7.3180    1.0170    6.4030 c         1 MOL      0.686802
    159 O21        -8.0820    0.1000    6.8300 o         1 MOL     -0.679807
    160 O22        -7.0040    2.0440    7.0980 o         1 MOL     -0.679807
    161 H72        -8.1430   -0.9410    3.0490 hn        1 MOL      0.326742
    162 H73        -9.0320    1.0630    3.9870 h1        1 MOL      0.095101
    163 H74        -6.9560    2.7460    4.3520 hc        1 MOL      0.007916
    164 H75        -6.1080    1.7600    3.2490 hc        1 MOL      0.007916
    165 H76        -5.4440    0.7340    5.3970 hc        1 MOL     -0.006593
    166 H77        -6.8130   -0.3200    4.7920 hc        1 MOL     -0.006593
    167 N15        -9.6870    2.0050    1.4520 n         1 MOL     -0.295806
    168 C54       -10.1730    2.8250    0.3760 c3        1 MOL     -0.003483
    169 H78       -11.1580    2.4730    0.0690 h1        1 MOL      0.047196
    170 H79       -10.2450    3.8590    0.7100 h1        1 MOL      0.047196
    171 H80        -9.4870    2.7630   -0.4680 h1        1 MOL      0.047196
    172 H81        -9.9290    1.0280    1.4800 hn        1 MOL      0.256405
    173 Ca1        -0.2700    0.6310    1.8300 Ca        1 MOL      1.784705
    174 O23        -1.6840    0.5980    4.3100 oh        1 MOL     -0.852362
    175 H82        -2.2350    1.1230    4.8970 ho        1 MOL      0.426285
    176 H83        -1.6040   -0.2440    4.7540 ho        1 MOL      0.426285
    177 O24        -1.9380    2.6310    1.3780 oh        1 MOL     -0.852362
    178 H84        -2.0070    3.5720    1.4940 ho        1 MOL      0.426285
    179 H85        -2.7160    2.3950    0.8640 ho        1 MOL      0.426285
    180 O25         1.4580   -0.0090    4.1340 oh        1 MOL     -0.852362
    181 H86         2.0370    0.7080    4.4190 ho        1 MOL      0.426285
    182 H87         1.3440   -0.5450    4.9200 ho        1 MOL      0.426285
    183 O26         0.5830    2.9150    3.1750 oh        1 MOL     -0.852362
    184 H88         1.3300    2.9480    3.7740 ho        1 MOL      0.426285
    185 H89        -0.0910    3.4470    3.5910 ho        1 MOL      0.426285
    186 O27        -2.6450   -0.8500    1.4100 oh        1 MOL     -0.852362
    187 H90        -3.0940   -0.9420    0.5660 ho        1 MOL      0.426285
    188 H91        -3.3120   -1.0480    2.0630 ho        1 MOL      0.426285
    189 O28        -0.3890   -1.7420    2.9700 oh        1 MOL     -0.852362
    190 H92         0.3170   -2.0090    3.5690 ho        1 MOL      0.426285
    191 H93        -0.8010   -2.5590    2.7060 ho        1 MOL      0.426285
@<TRIPOS>BOND
     1    1    2 1   
     2    1    4 1   
     3    1    5 1   
     4    1    6 1   
     5    2    3 2   
     6    2    7 1   
     7    7    8 1   
     8    7   15 1   
     9    8    9 1   
    10    8   11 1   
    11    8   16 1   
    12    9   10 2   
    13    9   19 1   
    14   11   12 1   
    15   11   17 1   
    16   11   18 1   
    17   12   13 1   
    18   12   14 1   
    19   19   20 1   
    20   19   28 1   
    21   20   21 1   
    22   20   23 1   
    23   20   29 1   
    24   21   22 2   
    25   21   41 1   
    26   23   24 1   
    27   23   30 1   
    28   23   31 1   
    29   24   25 1   
    30   24   32 1   
    31   24   33 1   
    32   25   26 1   
    33   25   34 1   
    34   25   35 1   
    35   26   27 1   
    36   26   36 1   
    37   26   37 1   
    38   27   38 1   
    39   27   39 1   
    40   27   40 1   
    41   41   42 1   
    42   41   49 1   
    43   42   43 1   
    44   42   45 1   
    45   42   50 1   
    46   43   44 2   
    47   43   53 1   
    48   45   46 1   
    49   45   51 1   
    50   45   52 1   
    51   46   47 1   
    52   46   48 1   
    53   53   54 1   
    54   53   57 1   
    55   54   55 1   
    56   54   58 1   
    57   54   59 1   
    58   55   56 2   
    59   55   60 1   
    60   60   61 1   
    61   60   68 1   
    62   61   62 1   
    63   61   64 1   
    64   61   69 1   
    65   62   63 2   
    66   62   74 1   
    67   64   65 1   
    68   64   70 1   
    69   64   71 1   
    70   65   66 1   
    71   65   67 2   
    72   66   72 1   
    73   66   73 1   
    74   74   75 1   
    75   74   78 1   
    76   75   76 1   
    77   75   79 1   
    78   75   80 1   
    79   76   77 2   
    80   76   81 1   
    81   81   82 1   
    82   81   93 1   
    83   82   83 1   
    84   82   85 1   
    85   82   94 1   
    86   83   84 2   
    87   83  102 1   
    88   85   86 1   
    89   85   95 1   
    90   85   96 1   
    91   86   87 ar  
    92   86   88 ar  
    93   87   89 ar  
    94   87   97 1   
    95   88   90 ar  
    96   88   98 1   
    97   89   91 ar  
    98   89   99 1   
    99   90   91 ar  
   100   90  100 1   
   101   91   92 1   
   102   92  101 1   
   103  102  103 1   
   104  102  110 1   
   105  103  104 1   
   106  103  106 1   
   107  103  111 1   
   108  104  105 2   
   109  104  121 1   
   110  106  107 1   
   111  106  108 1   
   112  106  112 1   
   113  107  109 1   
   114  107  113 1   
   115  107  114 1   
   116  108  115 1   
   117  108  116 1   
   118  108  117 1   
   119  109  118 1   
   120  109  119 1   
   121  109  120 1   
   122  121  122 1   
   123  121  127 1   
   124  122  123 1   
   125  122  125 1   
   126  122  128 1   
   127  123  124 2   
   128  123  132 1   
   129  125  126 1   
   130  125  129 1   
   131  125  130 1   
   132  126  131 1   
   133  132  133 1   
   134  132  137 1   
   135  133  134 1   
   136  133  136 1   
   137  133  138 1   
   138  134  135 2   
   139  134  142 1   
   140  136  139 1   
   141  136  140 1   
   142  136  141 1   
   143  142  143 1   
   144  142  147 1   
   145  143  144 1   
   146  143  146 1   
   147  143  148 1   
   148  144  145 2   
   149  144  152 1   
   150  146  149 1   
   151  146  150 1   
   152  146  151 1   
   153  152  153 1   
   154  152  161 1   
   155  153  154 1   
   156  153  156 1   
   157  153  162 1   
   158  154  155 2   
   159  154  167 1   
   160  156  157 1   
   161  156  163 1   
   162  156  164 1   
   163  157  158 1   
   164  157  165 1   
   165  157  166 1   
   166  158  159 1   
   167  158  160 1   
   168  167  168 1   
   169  167  172 1   
   170  168  169 1   
   171  168  170 1   
   172  168  171 1   
   173  174  175 1   
   174  174  176 1   
   175  177  178 1   
   176  177  179 1   
   177  180  181 1   
   178  180  182 1   
   179  183  184 1   
   180  183  185 1   
   181  186  187 1   
   182  186  188 1   
   183  189  190 1   
   184  189  191 1   
@<TRIPOS>SUBSTRUCTURE
     1 MOL         1 TEMP              0 ****  ****    0 ROOT
