@<TRIPOS>MOLECULE
MOL
  192   187     1     0     0
SMALL
resp


@<TRIPOS>ATOM
      1 C1         -9.3630   -0.3120   -2.8910 c3        1 MOL     -0.385483
      2 C2         -8.4790   -0.2000   -1.6000 c         1 MOL      0.754042
      3 O1         -7.3630    0.3930   -1.5710 o         1 MOL     -0.656261
      4 H1         -8.7210   -0.4650   -3.7580 hc        1 MOL      0.095446
      5 H2        -10.0470   -1.1550   -2.7920 hc        1 MOL      0.095446
      6 H3         -9.9350    0.6070   -3.0220 hc        1 MOL      0.095446
      7 N1         -8.8640   -0.7980   -0.4850 n         1 MOL     -0.517297
      8 C3         -8.2980   -0.7530    0.8640 c3        1 MOL      0.172854
      9 C4         -7.4250   -2.0210    1.1300 c         1 MOL      0.330097
     10 O2         -7.1270   -2.3380    2.3000 o         1 MOL     -0.462071
     11 C5         -9.4580   -0.4400    1.8480 c3        1 MOL     -0.251653
     12 C6        -10.3730    0.7270    1.5180 c         1 MOL      0.759481
     13 O3         -9.8430    1.8550    1.4960 o         1 MOL     -0.664592
     14 O4        -11.5290    0.4940    1.1590 o         1 MOL     -0.664592
     15 H4         -9.7560   -1.2620   -0.4540 hn        1 MOL      0.267616
     16 H5         -7.6300    0.1030    0.9590 h1        1 MOL      0.147714
     17 H6         -9.0280   -0.2370    2.8270 hc        1 MOL      0.034442
     18 H7        -10.0710   -1.3420    1.8880 hc        1 MOL      0.034442
     19 N2         -6.9390   -2.5950    0.0540 n         1 MOL     -0.182601
     20 C7         -5.9290   -3.7200    0.1740 c3        1 MOL      0.090790
     21 C8         -4.6780   -3.4420    1.0840 c         1 MOL      0.439165
     22 O5         -4.5390   -4.2780    2.0280 o         1 MOL     -0.550155
     23 C9         -5.4550   -4.1520   -1.2300 c3        1 MOL      0.316272
     24 C10        -6.1640   -5.3710   -1.8000 c3        1 MOL     -0.383296
     25 C11        -7.6660   -5.3150   -2.0850 c3        1 MOL      0.400272
     26 C12        -8.0520   -6.7380   -2.5270 c3        1 MOL      0.022496
     27 N3         -9.4580   -6.8060   -2.7080 n4        1 MOL     -0.321681
     28 H8         -7.3130   -2.3560   -0.8490 hn        1 MOL      0.080968
     29 H9         -6.4080   -4.5840    0.6380 h1        1 MOL      0.024760
     30 H10        -4.3900   -4.3250   -1.0380 hc        1 MOL     -0.048184
     31 H11        -5.4010   -3.3210   -1.9290 hc        1 MOL     -0.048184
     32 H12        -6.0120   -6.1810   -1.0840 hc        1 MOL      0.078391
     33 H13        -5.6230   -5.4840   -2.7320 hc        1 MOL      0.078391
     34 H14        -8.0260   -4.6210   -2.8340 hc        1 MOL     -0.104955
     35 H15        -8.1930   -4.9730   -1.1880 hc        1 MOL     -0.104955
     36 H16        -7.6530   -7.3510   -1.7220 hx        1 MOL      0.057285
     37 H17        -7.4830   -6.8970   -3.4470 hx        1 MOL      0.057285
     38 H18        -9.6780   -6.1300   -3.4200 hn        1 MOL      0.286092
     39 H19        -9.6950   -7.7160   -3.0890 hn        1 MOL      0.286092
     40 H20        -9.9590   -6.6330   -1.8390 hn        1 MOL      0.286092
     41 N4         -3.7720   -2.5140    0.8570 n         1 MOL     -0.333009
     42 C13        -3.7540   -1.4490   -0.1850 c3        1 MOL     -0.011457
     43 C14        -4.0000   -0.0260    0.3670 c         1 MOL      0.364719
     44 O6         -4.0860    0.0480    1.5710 o         1 MOL     -0.447693
     45 C15        -2.5300   -1.5390   -1.1280 c3        1 MOL     -0.076999
     46 C16        -1.2330   -1.7820   -0.3640 c         1 MOL      0.655645
     47 O7         -1.0090   -1.1040    0.6140 o         1 MOL     -0.667459
     48 O8         -0.4640   -2.7240   -0.7380 o         1 MOL     -0.667459
     49 H21        -3.0130   -2.4660    1.5240 hn        1 MOL      0.347102
     50 H22        -4.6640   -1.5590   -0.7690 h1        1 MOL      0.052792
     51 H23        -2.4110   -0.5870   -1.6420 hc        1 MOL      0.001595
     52 H24        -2.6540   -2.2810   -1.9020 hc        1 MOL      0.001595
     53 N5         -4.1180    0.9940   -0.4780 n         1 MOL     -0.307119
     54 C17        -4.2650    2.4310   -0.0950 c3        1 MOL     -0.129585
     55 C18        -2.9760    2.9710    0.5880 c         1 MOL      0.754429
     56 O9         -2.0160    2.2630    0.6990 o         1 MOL     -0.689340
     57 H25        -4.1930    0.7300   -1.4470 hn        1 MOL      0.278712
     58 H26        -5.0110    2.5570    0.6980 h1        1 MOL      0.102242
     59 H27        -4.4020    3.1730   -0.8790 h1        1 MOL      0.102242
     60 N6         -3.0980    4.2260    0.9490 n         1 MOL     -0.537950
     61 C19        -2.0190    5.0080    1.5940 c3        1 MOL      0.404591
     62 C20        -2.2160    6.4870    1.4020 c         1 MOL      0.438630
     63 O10        -3.3480    7.0080    1.3600 o         1 MOL     -0.514891
     64 C21        -1.9360    4.7750    3.1030 c3        1 MOL     -0.565504
     65 C22        -1.5300    3.3620    3.4910 c         1 MOL      0.770695
     66 O11        -0.4530    2.9150    3.0050 o         1 MOL     -0.662963
     67 O12        -2.2170    2.6110    4.2720 o         1 MOL     -0.662963
     68 H28        -3.9880    4.6830    0.8120 hn        1 MOL      0.283390
     69 H29        -1.0110    4.7800    1.2550 h1        1 MOL     -0.044802
     70 H30        -2.9710    4.8540    3.4280 hc        1 MOL      0.150332
     71 H31        -1.3090    5.5070    3.6130 hc        1 MOL      0.150332
     72 N7         -1.1790    7.3360    1.2310 n         1 MOL     -0.481734
     73 C23         0.2790    6.9710    1.3900 c3        1 MOL      0.025237
     74 C24         0.8790    6.2510    0.1630 c         1 MOL      0.513375
     75 O13         0.2190    6.1070   -0.9010 o         1 MOL     -0.469243
     76 H32        -1.3670    8.3130    1.0130 hn        1 MOL      0.324764
     77 H33         0.3520    6.3100    2.2560 h1        1 MOL      0.069631
     78 H34         0.8460    7.8320    1.7220 h1        1 MOL      0.069631
     79 N8          2.0800    5.6170    0.3100 n         1 MOL     -0.553174
     80 C25         2.5890    4.7850   -0.7940 c3        1 MOL     -0.072032
     81 C26         1.6670    3.6080   -1.1410 c         1 MOL      0.578383
     82 O14         1.0150    3.0610   -0.2710 o         1 MOL     -0.570169
     83 C27         4.0620    4.3530   -0.4700 c3        1 MOL      0.304208
     84 C28         4.7180    3.3730   -1.4630 c3        1 MOL     -0.266503
     85 O15         4.1290    3.7730    0.8290 oh        1 MOL     -0.611393
     86 H35         2.6050    5.6830    1.1670 hn        1 MOL      0.311987
     87 H36         2.5840    5.3350   -1.7380 h1        1 MOL      0.081043
     88 H37         4.6770    5.2580   -0.4590 h1        1 MOL      0.025180
     89 H38         3.9670    4.4230    1.5100 ho        1 MOL      0.414519
     90 H39         4.3760    3.6410   -2.4590 hc        1 MOL      0.083441
     91 H40         5.7990    3.3280   -1.3440 hc        1 MOL      0.083441
     92 H41         4.3110    2.3850   -1.2390 hc        1 MOL      0.083441
     93 N9          1.5760    3.2250   -2.3880 n         1 MOL     -0.301169
     94 C29         0.8360    2.0250   -2.8840 c3        1 MOL     -0.296541
     95 C30         1.2130    0.7070   -2.2530 c         1 MOL      0.600194
     96 O16         0.7920    0.2350   -1.1320 o         1 MOL     -0.480076
     97 C31        -0.6780    2.2400   -2.9400 c3        1 MOL      0.275368
     98 C32        -1.0410    3.6580   -3.3750 c3        1 MOL     -0.017304
     99 C33        -1.3930    1.2220   -3.8490 c3        1 MOL     -0.530267
    100 C34        -2.5580    3.9660   -3.4080 c3        1 MOL     -0.011012
    101 H42         2.0630    3.8970   -2.9740 hn        1 MOL      0.252863
    102 H43         1.3140    1.9830   -3.8590 h1        1 MOL      0.103246
    103 H44        -1.0110    2.1310   -1.9040 hc        1 MOL      0.020432
    104 H45        -0.7970    3.8430   -4.4200 hc        1 MOL     -0.000405
    105 H46        -0.5140    4.3460   -2.7200 hc        1 MOL     -0.000405
    106 H47        -1.6190    1.6220   -4.8470 hc        1 MOL      0.136775
    107 H48        -0.8650    0.2780   -3.9970 hc        1 MOL      0.136775
    108 H49        -2.3580    0.9910   -3.4000 hc        1 MOL      0.136775
    109 H50        -2.7100    5.0190   -3.6720 hc        1 MOL      0.004323
    110 H51        -3.0130    3.3080   -4.1440 hc        1 MOL      0.004323
    111 H52        -3.0900    3.8200   -2.4650 hc        1 MOL      0.004323
    112 N10         2.0950   -0.0030   -3.0070 n         1 MOL     -0.549280
    113 C35         2.5300   -1.4450   -2.7590 c3        1 MOL      0.015339
    114 C36         4.1200   -1.6060   -2.9070 c         1 MOL      0.490071
    115 O17         4.5930   -2.7540   -2.8250 o         1 MOL     -0.572953
    116 C37         1.7500   -2.4400   -3.6360 c3        1 MOL      0.515923
    117 C38         1.9730   -2.3330   -5.1280 c3        1 MOL     -0.471875
    118 O18         0.3510   -2.4710   -3.4060 oh        1 MOL     -0.599463
    119 H53         2.4500    0.4270   -3.8520 hn        1 MOL      0.320398
    120 H54         2.3000   -1.7930   -1.7480 h1        1 MOL      0.061604
    121 H55         2.0820   -3.4450   -3.3830 h1        1 MOL     -0.019355
    122 H56         0.1910   -2.5930   -2.4720 ho        1 MOL      0.346850
    123 H57         2.9080   -1.8900   -5.4850 hc        1 MOL      0.109715
    124 H58         1.6990   -3.2910   -5.5620 hc        1 MOL      0.109715
    125 H59         1.2090   -1.6720   -5.5250 hc        1 MOL      0.109715
    126 N11         4.9020   -0.5540   -2.9970 n         1 MOL     -0.363421
    127 C39         6.3330   -0.4930   -3.0860 c3        1 MOL      0.185898
    128 C40         6.9430   -0.7700   -1.7180 c         1 MOL      0.335643
    129 O19         7.4950    0.1200   -1.1020 o         1 MOL     -0.437204
    130 C41         6.6440    0.9500   -3.6840 c3        1 MOL      0.271297
    131 C42         8.1130    1.1550   -4.0100 c3        1 MOL     -0.428272
    132 O20         5.9110    1.1700   -4.8150 oh        1 MOL     -0.615982
    133 H60         4.5020    0.3560   -3.1690 hn        1 MOL      0.259129
    134 H61         6.7010   -1.2170   -3.8250 h1        1 MOL      0.039200
    135 H62         6.3410    1.7130   -2.9650 h1        1 MOL      0.008031
    136 H63         6.6480    1.5590   -5.2960 ho        1 MOL      0.403445
    137 H64         8.1710    2.0740   -4.5860 hc        1 MOL      0.115436
    138 H65         8.6570    1.2010   -3.0650 hc        1 MOL      0.115436
    139 H66         8.4850    0.4690   -4.7690 hc        1 MOL      0.115436
    140 N12         6.7650   -2.0520   -1.2480 n         1 MOL     -0.701054
    141 C43         6.6590   -2.4590    0.1670 c3        1 MOL      0.397877
    142 C44         5.4430   -1.8310    0.9140 c         1 MOL      0.624190
    143 O21         5.1120   -0.7480    0.5950 o         1 MOL     -0.490926
    144 C45         7.9970   -2.3380    0.9900 c3        1 MOL     -0.476999
    145 C46         9.2930   -2.4040    0.1850 c3        1 MOL     -0.031205
    146 C47        10.4920   -2.5700    1.1560 c3        1 MOL     -0.224582
    147 C48        11.6030   -2.5040    0.1370 c3        1 MOL      0.074280
    148 N13        12.8470   -3.1160    0.6110 n4        1 MOL     -0.115273
    149 H67         6.3730   -2.6980   -1.9180 hn        1 MOL      0.381756
    150 H68         6.3870   -3.5090    0.1250 h1        1 MOL     -0.001332
    151 H69         8.0240   -3.2250    1.6280 hc        1 MOL      0.143915
    152 H70         7.9570   -1.4290    1.5770 hc        1 MOL      0.143915
    153 H71         9.4280   -1.4390   -0.3030 hc        1 MOL      0.107640
    154 H72         9.2040   -3.2060   -0.5440 hc        1 MOL      0.107640
    155 H73        10.4500   -3.4850    1.7420 hc        1 MOL      0.119264
    156 H74        10.5070   -1.6790    1.7790 hc        1 MOL      0.119264
    157 H75        11.8910   -1.4750   -0.0900 hx        1 MOL      0.053749
    158 H76        11.2730   -2.9730   -0.7810 hx        1 MOL      0.053749
    159 H77        12.7190   -4.1020    0.7520 hn        1 MOL      0.196538
    160 H78        13.6370   -2.9760   -0.0010 hn        1 MOL      0.196538
    161 H79        13.2110   -2.7680    1.4880 hn        1 MOL      0.196538
    162 N14         4.8020   -2.5170    1.8580 n         1 MOL     -0.794497
    163 C49         3.7340   -1.9670    2.7450 c3        1 MOL      0.449848
    164 C50         2.4300   -1.9270    2.0670 c         1 MOL      0.100111
    165 O22         1.6860   -0.9680    2.2170 o         1 MOL     -0.459953
    166 C51         3.6310   -2.8640    3.9400 c3        1 MOL      0.109531
    167 C52         4.8640   -2.9050    4.8330 c3        1 MOL     -0.186555
    168 C53         4.6010   -3.6330    6.1990 c         1 MOL      0.654549
    169 O23         4.9240   -4.8690    6.2070 o         1 MOL     -0.639860
    170 O24         4.1150   -2.9920    7.1420 o         1 MOL     -0.639860
    171 H80         5.1290   -3.4610    2.0590 hn        1 MOL      0.375377
    172 H81         3.9390   -0.9220    2.9780 h1        1 MOL     -0.000100
    173 H82         3.5340   -3.8840    3.5590 hc        1 MOL      0.014829
    174 H83         2.7510   -2.5310    4.5060 hc        1 MOL      0.014829
    175 H84         5.0910   -1.8670    5.0890 hc        1 MOL     -0.019630
    176 H85         5.6750   -3.3850    4.2780 hc        1 MOL     -0.019630
    177 N15         1.9840   -2.8350    1.1740 n         1 MOL     -0.081699
    178 C54         2.3410   -4.2740    1.1200 c3        1 MOL     -0.142042
    179 H86         1.4490   -4.8760    1.2980 h1        1 MOL      0.057026
    180 H87         2.7490   -4.5110    0.1380 h1        1 MOL      0.057026
    181 H88         3.0850   -4.4940    1.8860 h1        1 MOL      0.057026
    182 H89         1.1730   -2.4800    0.6880 hn        1 MOL      0.255422
    183 Ca1         0.3310    1.0920    1.3620 Ca        1 MOL      1.747696
    184 O25         2.9480    1.2170    0.7800 oh        1 MOL     -0.883089
    185 H90         3.6450    0.5860    0.5760 ho        1 MOL      0.421057
    186 H91         3.3390    2.0730    0.5930 ho        1 MOL      0.421057
    187 O26        -1.6440    0.0540    3.1770 oh        1 MOL     -0.883089
    188 H92        -1.8170    0.9180    3.5590 ho        1 MOL      0.421057
    189 H93        -2.4920   -0.2240    2.8190 ho        1 MOL      0.421057
    190 O27         1.8770    1.5670    3.4150 oh        1 MOL     -0.883089
    191 H94         2.8100    1.4880    3.2380 ho        1 MOL      0.421057
    192 H95         1.8120    1.5420    4.3710 ho        1 MOL      0.421057
@<TRIPOS>BOND
     1    1    2 1   
     2    1    4 1   
     3    1    5 1   
     4    1    6 1   
     5    2    3 2   
     6    2    7 1   
     7    7    8 1   
     8    7   15 1   
     9    8    9 1   
    10    8   11 1   
    11    8   16 1   
    12    9   10 2   
    13    9   19 1   
    14   11   12 1   
    15   11   17 1   
    16   11   18 1   
    17   12   13 1   
    18   12   14 1   
    19   19   20 1   
    20   19   28 1   
    21   20   21 1   
    22   20   23 1   
    23   20   29 1   
    24   21   22 2   
    25   21   41 1   
    26   23   24 1   
    27   23   30 1   
    28   23   31 1   
    29   24   25 1   
    30   24   32 1   
    31   24   33 1   
    32   25   26 1   
    33   25   34 1   
    34   25   35 1   
    35   26   27 1   
    36   26   36 1   
    37   26   37 1   
    38   27   38 1   
    39   27   39 1   
    40   27   40 1   
    41   41   42 1   
    42   41   49 1   
    43   42   43 1   
    44   42   45 1   
    45   42   50 1   
    46   43   44 2   
    47   43   53 1   
    48   45   46 1   
    49   45   51 1   
    50   45   52 1   
    51   46   47 1   
    52   46   48 1   
    53   53   54 1   
    54   53   57 1   
    55   54   55 1   
    56   54   58 1   
    57   54   59 1   
    58   55   56 2   
    59   55   60 1   
    60   60   61 1   
    61   60   68 1   
    62   61   62 1   
    63   61   64 1   
    64   61   69 1   
    65   62   63 2   
    66   62   72 1   
    67   64   65 1   
    68   64   70 1   
    69   64   71 1   
    70   65   66 1   
    71   65   67 1   
    72   72   73 1   
    73   72   76 1   
    74   73   74 1   
    75   73   77 1   
    76   73   78 1   
    77   74   75 2   
    78   74   79 1   
    79   79   80 1   
    80   79   86 1   
    81   80   81 1   
    82   80   83 1   
    83   80   87 1   
    84   81   82 2   
    85   81   93 1   
    86   83   84 1   
    87   83   85 1   
    88   83   88 1   
    89   84   90 1   
    90   84   91 1   
    91   84   92 1   
    92   85   89 1   
    93   93   94 1   
    94   93  101 1   
    95   94   95 1   
    96   94   97 1   
    97   94  102 1   
    98   95   96 2   
    99   95  112 1   
   100   97   98 1   
   101   97   99 1   
   102   97  103 1   
   103   98  100 1   
   104   98  104 1   
   105   98  105 1   
   106   99  106 1   
   107   99  107 1   
   108   99  108 1   
   109  100  109 1   
   110  100  110 1   
   111  100  111 1   
   112  112  113 1   
   113  112  119 1   
   114  113  114 1   
   115  113  116 1   
   116  113  120 1   
   117  114  115 2   
   118  114  126 1   
   119  116  117 1   
   120  116  118 1   
   121  116  121 1   
   122  117  123 1   
   123  117  124 1   
   124  117  125 1   
   125  118  122 1   
   126  126  127 1   
   127  126  133 1   
   128  127  128 1   
   129  127  130 1   
   130  127  134 1   
   131  128  129 2   
   132  128  140 1   
   133  130  131 1   
   134  130  132 1   
   135  130  135 1   
   136  131  137 1   
   137  131  138 1   
   138  131  139 1   
   139  132  136 1   
   140  140  141 1   
   141  140  149 1   
   142  141  142 1   
   143  141  144 1   
   144  141  150 1   
   145  142  143 2   
   146  142  162 1   
   147  144  145 1   
   148  144  151 1   
   149  144  152 1   
   150  145  146 1   
   151  145  153 1   
   152  145  154 1   
   153  146  147 1   
   154  146  155 1   
   155  146  156 1   
   156  147  148 1   
   157  147  157 1   
   158  147  158 1   
   159  148  159 1   
   160  148  160 1   
   161  148  161 1   
   162  162  163 1   
   163  162  171 1   
   164  163  164 1   
   165  163  166 1   
   166  163  172 1   
   167  164  165 2   
   168  164  177 1   
   169  166  167 1   
   170  166  173 1   
   171  166  174 1   
   172  167  168 1   
   173  167  175 1   
   174  167  176 1   
   175  168  169 1   
   176  168  170 1   
   177  177  178 1   
   178  177  182 1   
   179  178  179 1   
   180  178  180 1   
   181  178  181 1   
   182  184  185 1   
   183  184  186 1   
   184  187  188 1   
   185  187  189 1   
   186  190  191 1   
   187  190  192 1   
@<TRIPOS>SUBSTRUCTURE
     1 MOL         1 TEMP              0 ****  ****    0 ROOT
