@<TRIPOS>MOLECULE
MOL
  189   185     1     0     0
SMALL
resp


@<TRIPOS>ATOM
      1 C1        -10.0330    0.6660   -1.9710 c3        1 MOL     -0.410870
      2 C2         -8.8730    0.0010   -1.2230 c         1 MOL      0.781921
      3 O1         -7.8820   -0.3690   -1.8370 o         1 MOL     -0.667901
      4 H1        -10.5090   -0.0640   -2.6260 hc        1 MOL      0.107129
      5 H2        -10.7640    1.0380   -1.2520 hc        1 MOL      0.107129
      6 H3         -9.6540    1.4960   -2.5670 hc        1 MOL      0.107129
      7 N1         -8.9450   -0.1570    0.0970 n         1 MOL     -0.769028
      8 C3         -7.7640   -0.5120    0.9260 c3        1 MOL      0.331569
      9 C4         -7.2160   -1.9850    0.8740 c         1 MOL      0.392815
     10 O2         -7.4750   -2.7630    1.7920 o         1 MOL     -0.480009
     11 C5         -8.0180   -0.1750    2.3410 c3        1 MOL     -0.246479
     12 C6         -8.4100    1.2330    2.5220 c         1 MOL      0.747550
     13 O3         -7.8130    2.0880    1.8960 o         1 MOL     -0.678955
     14 O4         -9.3170    1.5720    3.3330 o         1 MOL     -0.678955
     15 H4         -9.8610   -0.0110    0.5060 hn        1 MOL      0.376301
     16 H5         -6.9180    0.0830    0.6030 h1        1 MOL      0.090855
     17 H6         -7.1150   -0.4330    2.8930 hc        1 MOL      0.049942
     18 H7         -8.8240   -0.7640    2.7690 hc        1 MOL      0.049942
     19 N2         -6.4880   -2.3580   -0.2130 n         1 MOL     -0.260495
     20 C7         -5.9970   -3.6810   -0.2820 c3        1 MOL      0.203732
     21 C8         -4.6030   -3.8830    0.3820 c         1 MOL      0.511111
     22 O5         -4.4280   -4.8550    1.1160 o         1 MOL     -0.531668
     23 C9         -5.9710   -4.1770   -1.7360 c3        1 MOL     -0.003512
     24 C10        -7.2550   -4.1420   -2.5230 c3        1 MOL     -0.037014
     25 C11        -8.3890   -5.0870   -2.0030 c3        1 MOL     -0.251178
     26 C12        -9.7700   -4.9680   -2.7540 c3        1 MOL     -0.027575
     27 N3         -9.6380   -5.1660   -4.2400 n4        1 MOL     -0.283757
     28 H8         -6.5320   -1.8310   -1.0710 hn        1 MOL      0.197398
     29 H9         -6.7450   -4.2620    0.2510 h1        1 MOL     -0.015811
     30 H10        -5.7040   -5.2420   -1.7090 hc        1 MOL     -0.007564
     31 H11        -5.1020   -3.6620   -2.1540 hc        1 MOL     -0.007564
     32 H12        -7.0750   -4.3750   -3.5750 hc        1 MOL      0.025862
     33 H13        -7.7220   -3.1580   -2.5620 hc        1 MOL      0.025862
     34 H14        -8.5040   -5.0170   -0.9250 hc        1 MOL      0.127026
     35 H15        -8.0890   -6.1410   -2.0680 hc        1 MOL      0.127026
     36 H16       -10.0620   -3.9160   -2.7180 hx        1 MOL      0.112884
     37 H17       -10.5800   -5.4800   -2.2440 hx        1 MOL      0.112884
     38 H18       -10.5410   -5.1740   -4.6870 hn        1 MOL      0.310654
     39 H19        -8.9740   -4.5290   -4.6640 hn        1 MOL      0.310654
     40 H20        -9.3230   -6.1200   -4.3310 hn        1 MOL      0.310654
     41 N4         -3.5740   -2.9820    0.1910 n         1 MOL     -0.433345
     42 C13        -3.5560   -1.7380   -0.6290 c3        1 MOL      0.047130
     43 C14        -3.8760   -0.5080    0.2130 c         1 MOL      0.106586
     44 O6         -3.7380   -0.4700    1.4510 o         1 MOL     -0.335808
     45 C15        -2.2350   -1.6330   -1.4240 c3        1 MOL     -0.124309
     46 C16        -1.0400   -2.0510   -0.5890 c         1 MOL      0.250295
     47 O7         -0.8220   -1.5520    0.5440 o         1 MOL     -0.466889
     48 O8         -0.2280   -2.8790   -1.0590 o         1 MOL     -0.466889
     49 H21        -2.7890   -3.0010    0.8310 hn        1 MOL      0.369926
     50 H22        -4.3050   -1.8120   -1.4180 h1        1 MOL      0.095764
     51 H23        -2.1470   -0.5920   -1.7580 hc        1 MOL      0.079646
     52 H24        -2.2960   -2.1350   -2.3840 hc        1 MOL      0.079646
     53 N5         -4.1840    0.6640   -0.4320 n         1 MOL     -0.338245
     54 C17        -4.3270    1.9930    0.1380 c3        1 MOL     -0.011072
     55 C18        -2.9870    2.5250    0.7250 c         1 MOL      0.774392
     56 O9         -1.9140    1.9220    0.6960 o         1 MOL     -0.617044
     57 H25        -4.0810    0.6490   -1.4340 hn        1 MOL      0.278735
     58 H26        -5.1050    2.0090    0.9040 h1        1 MOL      0.054717
     59 H27        -4.5500    2.6510   -0.6940 h1        1 MOL      0.054717
     60 N6         -3.1460    3.7280    1.3460 n         1 MOL     -0.690944
     61 C19        -2.1100    4.5240    1.9360 c3        1 MOL      0.493214
     62 C20        -2.5220    5.9970    2.0090 c         1 MOL      0.302023
     63 O10        -3.7680    6.3420    2.0270 o         1 MOL     -0.520396
     64 C21        -1.9280    4.0460    3.3930 c3        1 MOL     -0.280253
     65 C22        -1.2000    2.6980    3.5170 c         1 MOL      0.744967
     66 O11        -0.0270    2.5560    3.0760 o         1 MOL     -0.708597
     67 O12        -1.5680    1.8050    4.3200 o         1 MOL     -0.708597
     68 H28        -4.1060    4.0430    1.4450 hn        1 MOL      0.339516
     69 H29        -1.1220    4.4740    1.4660 h1        1 MOL     -0.097707
     70 H30        -2.9210    4.0770    3.8320 hc        1 MOL      0.081950
     71 H31        -1.2670    4.7430    3.9050 hc        1 MOL      0.081950
     72 N7         -1.5920    6.9280    1.9980 n         1 MOL     -0.303117
     73 C23        -0.0780    6.7890    2.0740 c3        1 MOL     -0.105214
     74 C24         0.6290    6.1560    0.8450 c         1 MOL      0.668436
     75 O13         0.0210    6.3210   -0.2340 o         1 MOL     -0.511664
     76 H32        -1.9360    7.8720    2.1190 hn        1 MOL      0.292055
     77 H33         0.1100    6.2380    2.9950 h1        1 MOL      0.066849
     78 H34         0.2910    7.8110    2.1780 h1        1 MOL      0.066849
     79 N8          1.8130    5.5250    1.0550 n         1 MOL     -0.660204
     80 C25         2.6230    4.9850   -0.0650 c3        1 MOL      0.097626
     81 C26         1.8690    3.7470   -0.5570 c         1 MOL      0.475483
     82 O14         1.5480    2.8760    0.2740 o         1 MOL     -0.512459
     83 C27         4.1210    4.7610    0.2140 c3        1 MOL      0.408116
     84 C28         4.8480    6.0920    0.3980 c3        1 MOL     -0.317365
     85 O15         4.6530    4.1470   -0.9410 oh        1 MOL     -0.652162
     86 H35         2.0550    5.2330    1.9910 hn        1 MOL      0.330073
     87 H36         2.5890    5.7790   -0.8100 h1        1 MOL      0.087808
     88 H37         4.3260    4.2140    1.1360 h1        1 MOL      0.035001
     89 H38         5.0270    3.3050   -0.6590 ho        1 MOL      0.396330
     90 H39         4.7990    6.7290   -0.4840 hc        1 MOL      0.081183
     91 H40         4.3470    6.7380    1.1170 hc        1 MOL      0.081183
     92 H41         5.8750    5.8930    0.7260 hc        1 MOL      0.081183
     93 N9          1.5450    3.7390   -1.8680 n         1 MOL     -0.504096
     94 C29         0.8520    2.7570   -2.6450 c3        1 MOL     -0.063152
     95 C30         1.1500    1.2860   -2.3010 c         1 MOL      0.519280
     96 O16         0.7240    0.6980   -1.2720 o         1 MOL     -0.481635
     97 C31        -0.7200    2.9820   -2.4860 c3        1 MOL      0.143560
     98 C32        -1.1940    4.4090   -2.7990 c3        1 MOL      0.061500
     99 C33        -1.4140    1.9360   -3.4140 c3        1 MOL     -0.416719
    100 C34        -2.7360    4.5640   -2.6680 c3        1 MOL     -0.160678
    101 H42         1.7410    4.5830   -2.3810 hn        1 MOL      0.292294
    102 H43         1.1010    2.9480   -3.6870 h1        1 MOL      0.094853
    103 H44        -1.0950    2.7310   -1.4910 hc        1 MOL      0.058126
    104 H45        -0.9390    4.7510   -3.8040 hc        1 MOL      0.001706
    105 H46        -0.7970    5.2230   -2.1830 hc        1 MOL      0.001706
    106 H47        -1.1450    0.8880   -3.2700 hc        1 MOL      0.085465
    107 H48        -2.4960    1.8910   -3.2820 hc        1 MOL      0.085465
    108 H49        -1.0860    2.2620   -4.3940 hc        1 MOL      0.085465
    109 H50        -3.0940    5.5880   -2.5050 hc        1 MOL      0.040769
    110 H51        -3.1730    4.1590   -3.5720 hc        1 MOL      0.040769
    111 H52        -3.0700    3.9120   -1.8620 hc        1 MOL      0.040769
    112 N10         2.0240    0.6590   -3.0800 n         1 MOL     -0.282487
    113 C35         2.5000   -0.7370   -2.9110 c3        1 MOL     -0.193832
    114 C36         4.0010   -0.9700   -3.1550 c         1 MOL      0.725907
    115 O17         4.4740   -2.0980   -3.2560 o         1 MOL     -0.591285
    116 C37         1.7140   -1.7920   -3.7570 c3        1 MOL      0.380456
    117 C38         1.9790   -1.6120   -5.2120 c3        1 MOL     -0.390889
    118 O18         0.3960   -1.6510   -3.3530 oh        1 MOL     -0.503631
    119 H53         2.2510    1.1660   -3.9190 hn        1 MOL      0.227003
    120 H54         2.3530   -1.0140   -1.8700 h1        1 MOL      0.094303
    121 H55         2.0030   -2.8050   -3.4850 h1        1 MOL      0.046158
    122 H56         0.2610   -2.0660   -2.4920 ho        1 MOL      0.209256
    123 H57         1.3610   -2.2670   -5.8130 hc        1 MOL      0.095879
    124 H58         1.6420   -0.6330   -5.5470 hc        1 MOL      0.095879
    125 H59         3.0440   -1.7400   -5.3960 hc        1 MOL      0.095879
    126 N11         4.7940    0.1000   -3.1910 n         1 MOL     -0.524570
    127 C39         6.2900   -0.0220   -3.0570 c3        1 MOL      0.039736
    128 C40         6.7560   -0.5380   -1.6490 c         1 MOL      0.556867
    129 O19         7.2940    0.2930   -0.8870 o         1 MOL     -0.539551
    130 C41         7.0850    1.3290   -3.3900 c3        1 MOL      0.463043
    131 C42         8.6110    1.0060   -3.6230 c3        1 MOL     -0.420279
    132 O20         6.5660    1.8900   -4.5760 oh        1 MOL     -0.612839
    133 H60         4.3140    0.9740   -3.1940 hn        1 MOL      0.237949
    134 H61         6.6470   -0.8020   -3.7260 h1        1 MOL      0.043867
    135 H62         7.0040    2.0560   -2.5860 h1        1 MOL     -0.018172
    136 H63         5.7100    2.2670   -4.3560 ho        1 MOL      0.377208
    137 H64         9.1440    0.6700   -2.7390 hc        1 MOL      0.111600
    138 H65         8.8070    0.2570   -4.3930 hc        1 MOL      0.111600
    139 H66         8.9710    1.9270   -4.0890 hc        1 MOL      0.111600
    140 N12         6.5580   -1.8390   -1.3770 n         1 MOL     -0.628724
    141 C43         6.6170   -2.4580   -0.0270 c3        1 MOL      0.071741
    142 C44         5.4770   -2.0520    0.8820 c         1 MOL      0.445729
    143 O21         5.1840   -0.8770    1.0680 o         1 MOL     -0.461256
    144 C45         7.9680   -2.3920    0.6420 c3        1 MOL     -0.052853
    145 C46         9.0820   -2.6860   -0.3500 c3        1 MOL     -0.075537
    146 C47        10.3780   -2.8150    0.3860 c3        1 MOL      0.077301
    147 C48        10.8370   -1.6110    1.1720 c3        1 MOL      0.052609
    148 N13        12.1290   -1.7740    1.8050 n4        1 MOL     -0.153556
    149 H67         6.0470   -2.3960   -2.0500 hn        1 MOL      0.371763
    150 H68         6.4910   -3.5300   -0.2360 h1        1 MOL      0.068530
    151 H69         8.0010   -3.0330    1.5230 hc        1 MOL      0.040086
    152 H70         8.1000   -1.4110    1.1000 hc        1 MOL      0.040086
    153 H71         9.0650   -1.9080   -1.1160 hc        1 MOL      0.053329
    154 H72         8.7840   -3.6410   -0.7980 hc        1 MOL      0.053329
    155 H73        11.0900   -2.8910   -0.4420 hc        1 MOL     -0.003978
    156 H74        10.2940   -3.7470    0.9380 hc        1 MOL     -0.003978
    157 H75        10.0850   -1.3910    1.9240 hx        1 MOL      0.063825
    158 H76        10.7800   -0.7180    0.5440 hx        1 MOL      0.063825
    159 H77        12.6510   -2.6160    1.5900 hn        1 MOL      0.190442
    160 H78        12.7320   -0.9800    1.6150 hn        1 MOL      0.190442
    161 H79        12.0080   -1.7630    2.8050 hn        1 MOL      0.190442
    162 N14         4.9170   -3.1020    1.5040 n         1 MOL     -0.419416
    163 C49         3.6860   -3.0040    2.3040 c3        1 MOL      0.262291
    164 C50         2.4960   -2.7330    1.3540 c         1 MOL      0.539095
    165 O22         1.8420   -1.7130    1.5270 o         1 MOL     -0.656697
    166 C51         3.4280   -4.2630    3.1470 c3        1 MOL     -0.002471
    167 C52         4.1640   -4.0580    4.4610 c3        1 MOL     -0.253579
    168 C53         3.9410   -5.3420    5.2810 c         1 MOL      0.659606
    169 O23         2.8650   -5.5700    5.9020 o         1 MOL     -0.657557
    170 O24         4.8120   -6.2190    5.1190 o         1 MOL     -0.657557
    171 H80         5.4700   -3.9490    1.4830 hn        1 MOL      0.253524
    172 H81         3.8240   -2.1090    2.8920 h1        1 MOL     -0.032570
    173 H82         3.8140   -5.1330    2.6280 hc        1 MOL      0.067993
    174 H83         2.3740   -4.4260    3.3480 hc        1 MOL      0.067993
    175 H84         3.7710   -3.1910    4.9950 hc        1 MOL      0.031131
    176 H85         5.2330   -3.8780    4.3320 hc        1 MOL      0.031131
    177 N15         2.0890   -3.5590    0.3540 n         1 MOL     -0.486057
    178 C54         2.5820   -4.8530   -0.0610 c3        1 MOL     -0.059489
    179 H86         2.8780   -4.8090   -1.1090 h1        1 MOL      0.046223
    180 H87         3.4420   -5.1270    0.5480 h1        1 MOL      0.046223
    181 H88         1.7960   -5.5990    0.0630 h1        1 MOL      0.046223
    182 H89         1.2860   -3.1610   -0.1250 hn        1 MOL      0.410495
    183 Ca1         0.4980    0.5790    1.4120 Ca        1 MOL      1.751302
    184 O25        -0.3370   -0.4870    3.6420 oh        1 MOL     -1.007956
    185 H90        -0.3970   -1.1840    4.3010 ho        1 MOL      0.465402
    186 H91        -0.5910    0.3100    4.1030 ho        1 MOL      0.465402
    187 O26         3.1210    0.8120    2.1670 oh        1 MOL     -1.007956
    188 H92         3.6560    0.1050    1.8200 ho        1 MOL      0.465402
    189 H93         3.3670    0.8730    3.0870 ho        1 MOL      0.465402
@<TRIPOS>BOND
     1    1    2 1   
     2    1    4 1   
     3    1    5 1   
     4    1    6 1   
     5    2    3 2   
     6    2    7 1   
     7    7    8 1   
     8    7   15 1   
     9    8    9 1   
    10    8   11 1   
    11    8   16 1   
    12    9   10 2   
    13    9   19 1   
    14   11   12 1   
    15   11   17 1   
    16   11   18 1   
    17   12   13 1   
    18   12   14 1   
    19   19   20 1   
    20   19   28 1   
    21   20   21 1   
    22   20   23 1   
    23   20   29 1   
    24   21   22 2   
    25   21   41 1   
    26   23   24 1   
    27   23   30 1   
    28   23   31 1   
    29   24   25 1   
    30   24   32 1   
    31   24   33 1   
    32   25   26 1   
    33   25   34 1   
    34   25   35 1   
    35   26   27 1   
    36   26   36 1   
    37   26   37 1   
    38   27   38 1   
    39   27   39 1   
    40   27   40 1   
    41   41   42 1   
    42   41   49 1   
    43   42   43 1   
    44   42   45 1   
    45   42   50 1   
    46   43   44 2   
    47   43   53 1   
    48   45   46 1   
    49   45   51 1   
    50   45   52 1   
    51   46   47 1   
    52   46   48 1   
    53   53   54 1   
    54   53   57 1   
    55   54   55 1   
    56   54   58 1   
    57   54   59 1   
    58   55   56 2   
    59   55   60 1   
    60   60   61 1   
    61   60   68 1   
    62   61   62 1   
    63   61   64 1   
    64   61   69 1   
    65   62   63 2   
    66   62   72 1   
    67   64   65 1   
    68   64   70 1   
    69   64   71 1   
    70   65   66 1   
    71   65   67 1   
    72   72   73 1   
    73   72   76 1   
    74   73   74 1   
    75   73   77 1   
    76   73   78 1   
    77   74   75 2   
    78   74   79 1   
    79   79   80 1   
    80   79   86 1   
    81   80   81 1   
    82   80   83 1   
    83   80   87 1   
    84   81   82 2   
    85   81   93 1   
    86   83   84 1   
    87   83   85 1   
    88   83   88 1   
    89   84   90 1   
    90   84   91 1   
    91   84   92 1   
    92   85   89 1   
    93   93   94 1   
    94   93  101 1   
    95   94   95 1   
    96   94   97 1   
    97   94  102 1   
    98   95   96 2   
    99   95  112 1   
   100   97   98 1   
   101   97   99 1   
   102   97  103 1   
   103   98  100 1   
   104   98  104 1   
   105   98  105 1   
   106   99  106 1   
   107   99  107 1   
   108   99  108 1   
   109  100  109 1   
   110  100  110 1   
   111  100  111 1   
   112  112  113 1   
   113  112  119 1   
   114  113  114 1   
   115  113  116 1   
   116  113  120 1   
   117  114  115 2   
   118  114  126 1   
   119  116  117 1   
   120  116  118 1   
   121  116  121 1   
   122  117  123 1   
   123  117  124 1   
   124  117  125 1   
   125  118  122 1   
   126  126  127 1   
   127  126  133 1   
   128  127  128 1   
   129  127  130 1   
   130  127  134 1   
   131  128  129 2   
   132  128  140 1   
   133  130  131 1   
   134  130  132 1   
   135  130  135 1   
   136  131  137 1   
   137  131  138 1   
   138  131  139 1   
   139  132  136 1   
   140  140  141 1   
   141  140  149 1   
   142  141  142 1   
   143  141  144 1   
   144  141  150 1   
   145  142  143 2   
   146  142  162 1   
   147  144  145 1   
   148  144  151 1   
   149  144  152 1   
   150  145  146 1   
   151  145  153 1   
   152  145  154 1   
   153  146  147 1   
   154  146  155 1   
   155  146  156 1   
   156  147  148 1   
   157  147  157 1   
   158  147  158 1   
   159  148  159 1   
   160  148  160 1   
   161  148  161 1   
   162  162  163 1   
   163  162  171 1   
   164  163  164 1   
   165  163  166 1   
   166  163  172 1   
   167  164  165 2   
   168  164  177 1   
   169  166  167 1   
   170  166  173 1   
   171  166  174 1   
   172  167  168 1   
   173  167  175 1   
   174  167  176 1   
   175  168  169 1   
   176  168  170 1   
   177  177  178 1   
   178  177  182 1   
   179  178  179 1   
   180  178  180 1   
   181  178  181 1   
   182  184  185 1   
   183  184  186 1   
   184  187  188 1   
   185  187  189 1   
@<TRIPOS>SUBSTRUCTURE
     1 MOL         1 TEMP              0 ****  ****    0 ROOT
