@<TRIPOS>MOLECULE
MOL
  195   189     1     0     0
SMALL
resp


@<TRIPOS>ATOM
      1 C1          1.0930    4.3730    2.5560 c3        1 MOL     -0.201921
      2 C2         -0.1420    4.2200    1.7430 c         1 MOL      0.742227
      3 O1         -1.1370    3.5980    2.2350 o         1 MOL     -0.582022
      4 H1          0.8850    4.0920    3.5880 hc        1 MOL      0.016314
      5 H2          1.8740    3.7290    2.1550 hc        1 MOL      0.016314
      6 H3          1.4240    5.4110    2.5220 hc        1 MOL      0.016314
      7 N1         -0.0960    4.7420    0.5000 n         1 MOL     -0.457248
      8 C3         -1.1140    4.4030   -0.5400 c3        1 MOL     -0.040615
      9 C4         -2.5280    4.6660   -0.0460 c         1 MOL      0.477814
     10 O2         -3.2550    3.6800    0.0150 o         1 MOL     -0.392078
     11 C5         -0.8170    3.0870   -1.0990 c3        1 MOL     -0.279344
     12 C6         -1.7970    2.7580   -2.2460 c         1 MOL      0.744165
     13 O3         -2.0920    3.6570   -3.0830 o         1 MOL     -0.633264
     14 O4         -2.1120    1.5590   -2.4900 o         1 MOL     -0.633264
     15 H4          0.7540    5.1830    0.1820 hn        1 MOL      0.266683
     16 H5         -0.9750    5.1560   -1.3180 h1        1 MOL      0.077989
     17 H6         -0.7340    2.3110   -0.3430 hc        1 MOL      0.093895
     18 H7          0.1480    3.1470   -1.5950 hc        1 MOL      0.093895
     19 N2         -2.9050    5.9330    0.1700 n         1 MOL     -0.566060
     20 C7         -4.2160    6.3600    0.6800 c3        1 MOL      0.189805
     21 C8         -5.0180    6.9670   -0.4970 c         1 MOL      0.641067
     22 O5         -4.5450    7.8450   -1.1660 o         1 MOL     -0.603883
     23 C9         -4.0320    7.4900    1.8000 c3        1 MOL      0.003685
     24 C10        -2.8340    7.2540    2.7790 c3        1 MOL      0.064843
     25 C11        -5.4090    7.4880    2.5280 c3        1 MOL     -0.001389
     26 C12        -3.0300    6.0030    3.6020 c3        1 MOL     -0.173728
     27 H8         -2.2600    6.6520   -0.1140 hn        1 MOL      0.282573
     28 H9         -4.6370    5.4060    0.9800 h1        1 MOL      0.074525
     29 H10        -3.9180    8.4170    1.2410 hc        1 MOL     -0.015551
     30 H11        -2.7280    8.1040    3.4430 hc        1 MOL     -0.043259
     31 H12        -1.9000    7.0050    2.2770 hc        1 MOL     -0.043259
     32 H13        -5.4110    8.0380    3.4680 hc        1 MOL     -0.000366
     33 H14        -6.1690    7.9730    1.9150 hc        1 MOL     -0.000366
     34 H15        -5.6500    6.4290    2.6360 hc        1 MOL     -0.000366
     35 H16        -3.2000    5.1160    2.9840 hc        1 MOL      0.047238
     36 H17        -2.0980    5.8770    4.1560 hc        1 MOL      0.047238
     37 H18        -3.8630    6.1260    4.2890 hc        1 MOL      0.047238
     38 N3         -6.2900    6.5710   -0.7830 n         1 MOL     -0.525093
     39 C13        -6.9730    5.4850   -0.0600 c3        1 MOL      0.024399
     40 C14        -6.4170    4.0630   -0.5330 c         1 MOL      0.498900
     41 O6         -6.4210    3.1420    0.3090 o         1 MOL     -0.558471
     42 C15        -8.4960    5.5180   -0.2480 c3        1 MOL     -0.093114
     43 C16        -9.2010    6.8660   -0.2280 c         1 MOL      0.703225
     44 O7         -9.5590    7.3640   -1.3090 o         1 MOL     -0.678325
     45 O8         -9.4490    7.2900    0.9130 o         1 MOL     -0.678325
     46 H19        -6.8080    6.9950   -1.5340 hn        1 MOL      0.306427
     47 H20        -6.8090    5.5750    1.0170 h1        1 MOL      0.072084
     48 H21        -8.8430    5.0510    0.6640 hc        1 MOL      0.023806
     49 H22        -8.7880    5.0410   -1.1840 hc        1 MOL      0.023806
     50 N4         -5.9530    3.8630   -1.7710 n         1 MOL     -0.391306
     51 C17        -5.3520    2.6810   -2.3190 c3        1 MOL     -0.047782
     52 C18        -6.3470    1.5450   -2.4350 c         1 MOL      0.471140
     53 O9         -7.5660    1.8070   -2.4410 o         1 MOL     -0.537046
     54 H23        -5.7150    4.7060   -2.2790 hn        1 MOL      0.269812
     55 H24        -4.4870    2.2700   -1.7900 h1        1 MOL      0.087196
     56 H25        -4.9620    2.8630   -3.3210 h1        1 MOL      0.087196
     57 N5         -5.8320    0.3210   -2.5330 n         1 MOL     -0.377707
     58 C19        -6.6160   -1.0040   -2.6630 c3        1 MOL     -0.069337
     59 C20        -7.1310   -1.7180   -1.3980 c         1 MOL      0.479481
     60 O10        -8.1130   -2.4220   -1.4250 o         1 MOL     -0.559709
     61 C21        -5.7430   -2.0020   -3.4250 c3        1 MOL     -0.023037
     62 C22        -4.3550   -2.2890   -2.8380 c         1 MOL      0.590597
     63 O11        -3.3470   -1.7530   -3.3270 o         1 MOL     -0.569561
     64 O12        -4.1970   -3.1960   -1.9610 o         1 MOL     -0.569561
     65 H26        -4.8320    0.3280   -2.5560 hn        1 MOL      0.289796
     66 H27        -7.3850   -0.8080   -3.4140 h1        1 MOL      0.109871
     67 H28        -5.5490   -1.4840   -4.3590 hc        1 MOL      0.000029
     68 H29        -6.1990   -2.9980   -3.5040 hc        1 MOL      0.000029
     69 N6         -6.4370   -1.5350   -0.2580 n         1 MOL     -0.084035
     70 C23        -6.8540   -2.1380    1.0080 c3        1 MOL     -0.484196
     71 C24        -6.3760   -3.5530    1.2460 c         1 MOL      0.632187
     72 O13        -6.7870   -4.2130    2.2850 o         1 MOL     -0.656656
     73 H30        -5.6070   -0.9610   -0.2900 hn        1 MOL      0.237672
     74 H31        -7.9400   -2.1620    1.0600 h1        1 MOL      0.181963
     75 H32        -6.4160   -1.5290    1.8070 h1        1 MOL      0.181963
     76 N7         -5.5900   -4.1260    0.3120 n         1 MOL      0.041515
     77 C25        -5.0520   -5.5000    0.2690 c3        1 MOL      0.132530
     78 C26        -4.4220   -6.0290    1.5920 c         1 MOL      0.538268
     79 O14        -4.5140   -7.2030    1.9210 o         1 MOL     -0.526203
     80 C27        -5.9490   -6.5560   -0.4240 c3        1 MOL     -0.266838
     81 C28        -6.7500   -5.9550   -1.5800 c3        1 MOL      0.029240
     82 C29        -7.1900   -6.9900   -2.6310 c         1 MOL      0.636138
     83 N8         -8.1260   -6.6500   -3.4690 n         1 MOL     -0.793927
     84 O15        -6.7270   -8.1070   -2.6890 o         1 MOL     -0.584606
     85 H33        -5.3460   -3.4820   -0.4350 hn        1 MOL     -0.114196
     86 H34        -4.2210   -5.3940   -0.4280 h1        1 MOL      0.062585
     87 H35        -6.5890   -7.0320    0.3300 hc        1 MOL      0.072434
     88 H36        -5.1230   -7.0890   -0.8970 hc        1 MOL      0.072434
     89 H37        -6.1850   -5.2860   -2.2180 hc        1 MOL      0.025385
     90 H38        -7.6590   -5.4610   -1.2380 hc        1 MOL      0.025385
     91 H39        -8.5850   -5.7970   -3.1920 hn        1 MOL      0.348079
     92 H40        -8.4780   -7.3310   -4.1220 hn        1 MOL      0.348079
     93 N9         -3.7530   -5.1250    2.3190 n         1 MOL     -0.445192
     94 C30        -2.9400   -5.4290    3.5300 c3        1 MOL     -0.258213
     95 C31        -1.4410   -5.0830    3.3900 c         1 MOL      0.675732
     96 O16        -0.6760   -5.5290    4.2240 o         1 MOL     -0.599967
     97 C32        -3.6090   -4.7410    4.7530 c3        1 MOL      0.439260
     98 C33        -3.8360   -3.2220    4.5220 c3        1 MOL     -0.507476
     99 C34        -4.8930   -5.3780    5.0980 c3        1 MOL     -0.507476
    100 H41        -3.6880   -4.1830    1.9530 hn        1 MOL      0.209655
    101 H42        -3.0770   -6.5050    3.6150 h1        1 MOL      0.143934
    102 H43        -2.9040   -4.7930    5.5780 hc        1 MOL     -0.049517
    103 H44        -4.7620   -3.0080    3.9880 hc        1 MOL      0.125606
    104 H45        -3.7440   -2.7640    5.4990 hc        1 MOL      0.125606
    105 H46        -2.9950   -2.8440    3.9350 hc        1 MOL      0.125606
    106 H47        -4.7280   -6.4490    5.2510 hc        1 MOL      0.125606
    107 H48        -5.4180   -4.8140    5.8700 hc        1 MOL      0.125606
    108 H49        -5.5470   -5.2860    4.2250 hc        1 MOL      0.125606
    109 N10        -1.1520   -4.2060    2.4770 n         1 MOL     -0.483507
    110 C35         0.1560   -3.4900    2.3810 c3        1 MOL      0.180959
    111 C36         0.5750   -3.3960    0.9560 c         1 MOL      0.601683
    112 O17        -0.2720   -3.5720    0.0770 o         1 MOL     -0.559163
    113 C37        -0.0810   -2.1430    3.1000 c3        1 MOL     -0.271463
    114 C38         1.2150   -1.4330    3.3300 c         1 MOL      0.632341
    115 N11         1.4100   -0.2470    2.8010 n         1 MOL     -0.695804
    116 O18         2.1000   -1.8000    4.1210 o         1 MOL     -0.577572
    117 H50        -1.8920   -3.8610    1.8640 hn        1 MOL      0.284024
    118 H51         0.9110   -4.1250    2.8500 h1        1 MOL      0.050695
    119 H52        -0.6430   -2.2500    4.0230 hc        1 MOL      0.103953
    120 H53        -0.6740   -1.5180    2.4440 hc        1 MOL      0.103953
    121 H54         0.6850    0.2750    2.3210 hn        1 MOL      0.328491
    122 H55         2.3790    0.0390    2.9100 hn        1 MOL      0.328491
    123 N12         1.8410   -3.0920    0.7230 n         1 MOL     -0.467303
    124 C39         2.4650   -3.2570   -0.5950 c3        1 MOL      0.033688
    125 C40         4.0260   -3.2850   -0.4830 c         1 MOL      0.597896
    126 O19         4.5550   -2.9670    0.6230 o         1 MOL     -0.576186
    127 C41         1.9740   -2.2380   -1.6720 c3        1 MOL     -0.246226
    128 C42         2.4930   -0.8860   -1.4460 ca        1 MOL      0.185082
    129 C43         1.8110    0.0400   -0.6940 ca        1 MOL     -0.139663
    130 C44         3.7900   -0.5880   -2.0000 ca        1 MOL     -0.139663
    131 C45         2.4720    1.2510   -0.4060 ca        1 MOL     -0.377608
    132 C46         4.3320    0.7620   -1.8920 ca        1 MOL     -0.377608
    133 C47         3.6070    1.6470   -1.1720 ca        1 MOL      0.433059
    134 O20         4.1660    2.8840   -0.9340 oh        1 MOL     -0.487074
    135 H56         2.4260   -2.8240    1.5080 hn        1 MOL      0.262147
    136 H57         2.2290   -4.2460   -0.9860 h1        1 MOL      0.093600
    137 H58         0.9000   -2.1100   -1.8000 hc        1 MOL      0.109055
    138 H59         2.3410   -2.5720   -2.6420 hc        1 MOL      0.109055
    139 H60         0.8630   -0.2070   -0.2530 ha        1 MOL      0.156565
    140 H61         4.3200   -1.3100   -2.5980 ha        1 MOL      0.156565
    141 H62         1.9670    1.9410    0.2510 ha        1 MOL      0.187180
    142 H63         5.2780    1.0700   -2.3200 ha        1 MOL      0.187180
    143 H64         3.7040    3.2360   -0.1760 ho        1 MOL      0.310962
    144 N13         4.6650   -3.7740   -1.4610 n         1 MOL     -0.495385
    145 C48         6.1250   -3.9640   -1.5180 c3        1 MOL      0.037584
    146 C49         6.8130   -2.8930   -2.3200 c         1 MOL      0.429525
    147 O21         6.8760   -3.0130   -3.5710 o         1 MOL     -0.543891
    148 C50         6.5010   -5.3760   -1.9700 c3        1 MOL      0.121795
    149 C51         6.0470   -6.4690   -1.0560 c3        1 MOL     -0.293194
    150 C52         6.6380   -7.8160   -1.4830 c         1 MOL      0.694736
    151 O22         7.5890   -8.3440   -0.8020 o         1 MOL     -0.656963
    152 O23         6.1440   -8.3900   -2.5200 o         1 MOL     -0.656963
    153 H65         4.1450   -4.0280   -2.2880 hn        1 MOL      0.328806
    154 H66         6.4320   -3.8960   -0.4760 h1        1 MOL      0.076613
    155 H67         7.5940   -5.4970   -1.9630 hc        1 MOL      0.019169
    156 H68         6.3440   -5.5630   -3.0340 hc        1 MOL      0.019169
    157 H69         4.9800   -6.5750   -1.2140 hc        1 MOL      0.064379
    158 H70         6.3820   -6.1560   -0.0730 hc        1 MOL      0.064379
    159 N14         7.3380   -1.8590   -1.7040 n         1 MOL     -0.608053
    160 C53         7.2920   -1.3690   -0.2840 c3        1 MOL      0.635596
    161 C54         8.1070   -2.2700    0.6770 c         1 MOL      0.538073
    162 O24         8.8480   -3.2200    0.3160 o         1 MOL     -0.542461
    163 C55         7.7080    0.0930   -0.2510 c3        1 MOL      0.114211
    164 C56         9.1150    0.3540   -0.7730 c3        1 MOL     -1.102301
    165 C57         9.5250    1.8090   -0.4950 c         1 MOL      0.950246
    166 O25         9.8030    2.2400    0.6380 o         1 MOL     -0.660488
    167 O26         9.6440    2.6660   -1.4430 o         1 MOL     -0.660488
    168 H71         7.9560   -1.3120   -2.2880 hn        1 MOL      0.337411
    169 H72         6.2610   -1.4740    0.0640 h1        1 MOL     -0.132572
    170 H73         7.6250    0.4880    0.7670 hc        1 MOL     -0.040130
    171 H74         7.0760    0.6120   -0.9810 hc        1 MOL     -0.040130
    172 H75         9.1670    0.2080   -1.8480 hc        1 MOL      0.270626
    173 H76         9.8520   -0.2730   -0.2780 hc        1 MOL      0.270626
    174 N15         7.9320   -1.9640    1.9990 n         1 MOL     -0.379296
    175 C58         8.4590   -2.7510    3.1440 c3        1 MOL     -0.545989
    176 H77         7.7470   -2.7130    3.9680 h1        1 MOL      0.198919
    177 H78         8.6050   -3.7870    2.8380 h1        1 MOL      0.198919
    178 H79         9.4110   -2.3300    3.4680 h1        1 MOL      0.198919
    179 H80         7.2480   -1.2520    2.1950 hn        1 MOL      0.301311
    180 Ca1         9.3730    4.8730    0.2820 Ca        1 MOL      1.538969
    181 O27        10.3600    7.5050   -0.0600 oh        1 MOL     -0.959971
    182 O28         8.3610    5.7450   -2.0340 oh        1 MOL     -0.959971
    183 H81         9.8960    8.3450   -0.0480 ho        1 MOL      0.416556
    184 H82         7.7440    6.4590   -2.2150 ho        1 MOL      0.416556
    185 H83        11.1810    7.6930   -0.5130 ho        1 MOL      0.416556
    186 H84         8.7520    5.5540   -2.8860 ho        1 MOL      0.416556
    187 O29         6.6580    3.6460   -0.6410 oh        1 MOL     -0.959971
    188 H85         6.5190    3.8940   -1.5530 ho        1 MOL      0.416556
    189 H86         5.8770    3.1560   -0.3980 ho        1 MOL      0.416556
    190 O30        12.0780    4.8930   -0.3360 oh        1 MOL     -0.959971
    191 H87        12.7810    4.3000   -0.0760 ho        1 MOL      0.416556
    192 H88        12.3910    5.2820   -1.1520 ho        1 MOL      0.416556
    193 O31        11.0150    5.5660    2.2960 oh        1 MOL     -0.959971
    194 H89        11.2150    6.5050    2.3810 ho        1 MOL      0.416556
    195 H90        11.3400    5.1890    3.1110 ho        1 MOL      0.416556
@<TRIPOS>BOND
     1    1    2 1   
     2    1    4 1   
     3    1    5 1   
     4    1    6 1   
     5    2    3 2   
     6    2    7 1   
     7    7    8 1   
     8    7   15 1   
     9    8    9 1   
    10    8   11 1   
    11    8   16 1   
    12    9   10 2   
    13    9   19 1   
    14   11   12 1   
    15   11   17 1   
    16   11   18 1   
    17   12   13 1   
    18   12   14 1   
    19   19   20 1   
    20   19   27 1   
    21   20   21 1   
    22   20   23 1   
    23   20   28 1   
    24   21   22 2   
    25   21   38 1   
    26   23   24 1   
    27   23   25 1   
    28   23   29 1   
    29   24   26 1   
    30   24   30 1   
    31   24   31 1   
    32   25   32 1   
    33   25   33 1   
    34   25   34 1   
    35   26   35 1   
    36   26   36 1   
    37   26   37 1   
    38   38   39 1   
    39   38   46 1   
    40   39   40 1   
    41   39   42 1   
    42   39   47 1   
    43   40   41 2   
    44   40   50 1   
    45   42   43 1   
    46   42   48 1   
    47   42   49 1   
    48   43   44 1   
    49   43   45 1   
    50   50   51 1   
    51   50   54 1   
    52   51   52 1   
    53   51   55 1   
    54   51   56 1   
    55   52   53 2   
    56   52   57 1   
    57   57   58 1   
    58   57   65 1   
    59   58   59 1   
    60   58   61 1   
    61   58   66 1   
    62   59   60 2   
    63   59   69 1   
    64   61   62 1   
    65   61   67 1   
    66   61   68 1   
    67   62   63 1   
    68   62   64 1   
    69   69   70 1   
    70   69   73 1   
    71   70   71 1   
    72   70   74 1   
    73   70   75 1   
    74   71   72 2   
    75   71   76 1   
    76   76   77 1   
    77   76   85 1   
    78   77   78 1   
    79   77   80 1   
    80   77   86 1   
    81   78   79 2   
    82   78   93 1   
    83   80   81 1   
    84   80   87 1   
    85   80   88 1   
    86   81   82 1   
    87   81   89 1   
    88   81   90 1   
    89   82   83 1   
    90   82   84 2   
    91   83   91 1   
    92   83   92 1   
    93   93   94 1   
    94   93  100 1   
    95   94   95 1   
    96   94   97 1   
    97   94  101 1   
    98   95   96 2   
    99   95  109 1   
   100   97   98 1   
   101   97   99 1   
   102   97  102 1   
   103   98  103 1   
   104   98  104 1   
   105   98  105 1   
   106   99  106 1   
   107   99  107 1   
   108   99  108 1   
   109  109  110 1   
   110  109  117 1   
   111  110  111 1   
   112  110  113 1   
   113  110  118 1   
   114  111  112 2   
   115  111  123 1   
   116  113  114 1   
   117  113  119 1   
   118  113  120 1   
   119  114  115 1   
   120  114  116 2   
   121  115  121 1   
   122  115  122 1   
   123  123  124 1   
   124  123  135 1   
   125  124  125 1   
   126  124  127 1   
   127  124  136 1   
   128  125  126 2   
   129  125  144 1   
   130  127  128 1   
   131  127  137 1   
   132  127  138 1   
   133  128  129 ar  
   134  128  130 ar  
   135  129  131 ar  
   136  129  139 1   
   137  130  132 ar  
   138  130  140 1   
   139  131  133 ar  
   140  131  141 1   
   141  132  133 ar  
   142  132  142 1   
   143  133  134 1   
   144  134  143 1   
   145  144  145 1   
   146  144  153 1   
   147  145  146 1   
   148  145  148 1   
   149  145  154 1   
   150  146  147 2   
   151  146  159 1   
   152  148  149 1   
   153  148  155 1   
   154  148  156 1   
   155  149  150 1   
   156  149  157 1   
   157  149  158 1   
   158  150  151 1   
   159  150  152 1   
   160  159  160 1   
   161  159  168 1   
   162  160  161 1   
   163  160  163 1   
   164  160  169 1   
   165  161  162 2   
   166  161  174 1   
   167  163  164 1   
   168  163  170 1   
   169  163  171 1   
   170  164  165 1   
   171  164  172 1   
   172  164  173 1   
   173  165  166 1   
   174  165  167 1   
   175  174  175 1   
   176  174  179 1   
   177  175  176 1   
   178  175  177 1   
   179  175  178 1   
   180  181  183 1   
   181  181  185 1   
   182  182  184 1   
   183  182  186 1   
   184  187  188 1   
   185  187  189 1   
   186  190  191 1   
   187  190  192 1   
   188  193  194 1   
   189  193  195 1   
@<TRIPOS>SUBSTRUCTURE
     1 MOL         1 TEMP              0 ****  ****    0 ROOT
