@<TRIPOS>MOLECULE
MOL
  181   177     1     0     0
SMALL
resp


@<TRIPOS>ATOM
      1 C1         10.3080    7.4500   -0.0270 c3        1 MOL     -0.254128
      2 C2          9.3080    6.3000    0.3390 c         1 MOL      0.642151
      3 O1          8.1570    6.6380    0.6060 o         1 MOL     -0.567590
      4 H1         11.1440    7.0380   -0.5930 hc        1 MOL      0.051911
      5 H2          9.7970    8.1990   -0.6300 hc        1 MOL      0.051911
      6 H3         10.6820    7.9110    0.8870 hc        1 MOL      0.051911
      7 N1          9.6760    5.0150    0.3850 n         1 MOL     -0.513226
      8 C3         10.9810    4.4470    0.0010 c3        1 MOL      0.322027
      9 C4         11.6290    3.4810    0.9600 c         1 MOL      0.182166
     10 O2         12.7310    2.9230    0.5850 o         1 MOL     -0.529927
     11 C5         10.8920    3.8710   -1.3990 c3        1 MOL      0.013646
     12 C6          9.8580    2.7020   -1.5800 c         1 MOL      0.344758
     13 O3         10.0330    1.6020   -1.0770 o         1 MOL     -0.591398
     14 O4          8.8850    2.8280   -2.3580 o         1 MOL     -0.591398
     15 H4          8.9540    4.3270    0.5730 hn        1 MOL      0.335421
     16 H5         11.6850    5.2630   -0.1730 h1        1 MOL      0.022165
     17 H6         11.8990    3.5530   -1.6530 hc        1 MOL     -0.003377
     18 H7         10.6010    4.6770   -2.0780 hc        1 MOL     -0.003377
     19 N2         11.1470    3.1590    2.1330 n         1 MOL     -0.336213
     20 C7         11.5820    2.0810    3.0220 c3        1 MOL      0.672254
     21 C8         10.3740    1.1240    3.2370 c         1 MOL      0.164884
     22 O5         10.2360    0.4590    4.2950 o         1 MOL     -0.607755
     23 C9         12.2080    2.7170    4.3000 c3        1 MOL     -0.486344
     24 H8         10.3260    3.6480    2.4600 hn        1 MOL      0.181754
     25 H9         12.3660    1.4430    2.6060 h1        1 MOL     -0.041544
     26 H10        13.2100    3.0930    4.1070 hc        1 MOL      0.111520
     27 H11        11.4730    3.4180    4.6840 hc        1 MOL      0.111520
     28 H12        12.4220    1.8150    4.8770 hc        1 MOL      0.111520
     29 N3          9.3540    1.0590    2.4150 n         1 MOL      0.477818
     30 C10         8.0830    0.4040    2.5410 c3        1 MOL     -0.527032
     31 C11         8.0670   -0.7670    1.5900 c         1 MOL      0.561353
     32 O6          8.6550   -0.6700    0.5210 o         1 MOL     -0.601080
     33 C12         7.0010    1.3730    2.2140 c3        1 MOL     -0.278720
     34 C13         7.1650    2.0960    0.9060 c         1 MOL      0.652953
     35 O7          7.3990    3.3190    0.8960 o         1 MOL     -0.601952
     36 O8          7.1020    1.5440   -0.2100 o         1 MOL     -0.601952
     37 H13         9.5140    1.5910    1.5730 hn        1 MOL     -0.235371
     38 H14         7.8430    0.1220    3.5620 h1        1 MOL      0.224751
     39 H15         6.7330    2.0740    3.0000 hc        1 MOL      0.115392
     40 H16         6.1170    0.7400    2.2900 hc        1 MOL      0.115392
     41 N4          7.3190   -1.8420    1.9500 n         1 MOL     -0.285387
     42 C14         6.9570   -3.0860    1.1770 c3        1 MOL     -0.270672
     43 C15         6.2660   -2.8530   -0.1630 c         1 MOL      0.847967
     44 O9          6.3130   -1.8000   -0.8530 o         1 MOL     -0.628367
     45 H17         6.9830   -1.7290    2.8980 hn        1 MOL      0.273592
     46 H18         6.3240   -3.7750    1.7380 h1        1 MOL      0.114185
     47 H19         7.8860   -3.5440    0.8550 h1        1 MOL      0.114185
     48 N5          5.5840   -3.9410   -0.5670 n         1 MOL     -0.870153
     49 C16         4.8240   -3.9050   -1.7800 c3        1 MOL      0.374489
     50 C17         3.2710   -3.9260   -1.5900 c         1 MOL      0.496178
     51 O10         2.5960   -3.6180   -2.5770 o         1 MOL     -0.517222
     52 C18         5.3360   -4.9630   -2.7750 c3        1 MOL     -0.356812
     53 C19         6.7090   -4.6260   -3.3650 c         1 MOL      0.743528
     54 N6          7.7520   -4.9980   -2.7460 n         1 MOL     -0.676061
     55 O11         6.7140   -4.0310   -4.4360 o         1 MOL     -0.607656
     56 H20         5.6230   -4.7720   -0.0020 hn        1 MOL      0.348160
     57 H21         4.9740   -2.9880   -2.3510 h1        1 MOL      0.054904
     58 H22         4.6590   -4.8880   -3.6170 hc        1 MOL      0.076709
     59 H23         5.3860   -5.9750   -2.3650 hc        1 MOL      0.076709
     60 H24         7.6110   -5.6150   -1.9530 hn        1 MOL      0.316366
     61 H25         8.6480   -4.9240   -3.2180 hn        1 MOL      0.316366
     62 N7          2.7640   -4.3660   -0.4430 n         1 MOL     -0.423297
     63 C20         1.3930   -4.5910   -0.1590 c3        1 MOL      0.011477
     64 C21         0.8980   -4.0200    1.1820 c         1 MOL      0.611857
     65 O12         1.6700   -3.4050    1.9760 o         1 MOL     -0.588147
     66 H26         3.3940   -4.7020    0.2620 hn        1 MOL      0.288885
     67 H27         1.2340   -5.6710   -0.1030 h1        1 MOL      0.101544
     68 H28         0.7930   -4.0890   -0.9270 h1        1 MOL      0.101544
     69 N8         -0.3610   -4.2150    1.6070 n         1 MOL     -0.441325
     70 C22        -1.4350   -5.0580    1.0150 c3        1 MOL     -0.127705
     71 C23        -2.7410   -4.2670    0.7230 c         1 MOL      0.658754
     72 O13        -3.5280   -4.5340   -0.2070 o         1 MOL     -0.566058
     73 C24        -1.6480   -6.4050    1.7410 c3        1 MOL      0.158770
     74 C25        -0.4190   -7.2550    1.5940 c3        1 MOL      0.038872
     75 O14        -1.7840   -6.1710    3.1230 oh        1 MOL     -0.620603
     76 H29        -0.6110   -3.7250    2.4560 hn        1 MOL      0.344843
     77 H30        -1.0830   -5.3690    0.0320 h1        1 MOL      0.072442
     78 H31        -2.4470   -7.0680    1.4130 h1        1 MOL      0.069228
     79 H32        -1.9620   -7.0300    3.5100 ho        1 MOL      0.416245
     80 H33        -0.1820   -7.6230    0.5940 hc        1 MOL     -0.023666
     81 H34         0.5120   -6.8310    1.9660 hc        1 MOL     -0.023666
     82 H35        -0.6110   -8.1890    2.1310 hc        1 MOL     -0.023666
     83 N9         -3.0000   -3.2180    1.4970 n         1 MOL     -0.525042
     84 C26        -4.2960   -2.5040    1.5840 c3        1 MOL      0.125585
     85 C27        -4.2280   -1.2510    0.6960 c         1 MOL      0.521143
     86 O15        -3.3440   -0.4090    0.8290 o         1 MOL     -0.548139
     87 C28        -4.6240   -2.2120    3.0640 c3        1 MOL      0.165584
     88 C29        -4.5370   -3.5320    3.8800 c3        1 MOL     -0.047942
     89 C30        -6.0280   -1.5470    3.1200 c3        1 MOL      0.015769
     90 C31        -5.1760   -3.4310    5.3310 c3        1 MOL     -0.275737
     91 H36        -2.2960   -2.9210    2.1510 hn        1 MOL      0.229003
     92 H37        -5.0070   -3.2350    1.2200 h1        1 MOL      0.036391
     93 H38        -3.9140   -1.4430    3.3750 hc        1 MOL      0.031544
     94 H39        -3.4840   -3.7040    4.0920 hc        1 MOL      0.023960
     95 H40        -5.0080   -4.4180    3.4550 hc        1 MOL      0.023960
     96 H41        -6.8630   -2.1980    2.8540 hc        1 MOL      0.000817
     97 H42        -6.2210   -1.2440    4.1590 hc        1 MOL      0.000817
     98 H43        -6.0400   -0.5680    2.6450 hc        1 MOL      0.000817
     99 H44        -6.2540   -3.2680    5.3530 hc        1 MOL      0.059863
    100 H45        -4.8750   -4.2890    5.9310 hc        1 MOL      0.059863
    101 H46        -4.6840   -2.6430    5.9100 hc        1 MOL      0.059863
    102 N10        -5.2350   -1.0370   -0.1900 n         1 MOL     -0.338011
    103 C32        -6.5380   -1.7680   -0.3740 c3        1 MOL      0.224535
    104 C33        -7.6710   -0.6840   -0.6390 c         1 MOL      0.479660
    105 O16        -7.4790    0.3690   -1.2020 o         1 MOL     -0.502961
    106 C34        -6.3410   -2.8470   -1.5020 c3        1 MOL     -0.193592
    107 C35        -5.6730   -2.4410   -2.8260 c         1 MOL      0.775077
    108 O17        -5.8650   -3.2140   -3.8250 o         1 MOL     -0.726944
    109 O18        -4.9440   -1.4320   -2.9660 o         1 MOL     -0.726944
    110 H47        -5.1640   -0.2140   -0.7800 hn        1 MOL      0.275599
    111 H48        -6.8770   -2.2680    0.5410 h1        1 MOL     -0.058811
    112 H49        -7.3150   -3.2500   -1.7730 hc        1 MOL     -0.006602
    113 H50        -5.7390   -3.6410   -1.0430 hc        1 MOL     -0.006602
    114 N11        -8.8940   -1.0710   -0.3470 n         1 MOL     -0.553479
    115 C36       -10.0270   -0.1800   -0.5840 c3        1 MOL      0.528034
    116 C37       -10.3490    0.8590    0.5520 c         1 MOL     -0.001800
    117 O19        -9.9890    0.4550    1.6910 o         1 MOL     -0.463015
    118 C38       -11.2740   -1.0910   -0.6950 c3        1 MOL     -0.250164
    119 C39       -12.5930   -0.3450   -0.8780 ca        1 MOL      0.136085
    120 C40       -13.3520    0.0590    0.2360 ca        1 MOL     -0.180076
    121 C41       -12.9790    0.0490   -2.1800 ca        1 MOL     -0.180076
    122 C42       -14.6040    0.6850    0.0330 ca        1 MOL     -0.143731
    123 C43       -14.2400    0.6920   -2.3560 ca        1 MOL     -0.143731
    124 C44       -15.0660    0.9790   -1.2750 ca        1 MOL     -0.100519
    125 H51        -9.0730   -1.9580    0.0910 hn        1 MOL      0.303751
    126 H52        -9.8450    0.3370   -1.5270 h1        1 MOL     -0.003351
    127 H53       -11.3100   -1.7660    0.1610 hc        1 MOL      0.057965
    128 H54       -11.1470   -1.6840   -1.6000 hc        1 MOL      0.057965
    129 H55       -13.0300   -0.1790    1.2430 ha        1 MOL      0.141595
    130 H56       -12.4100   -0.1540   -3.0720 ha        1 MOL      0.141595
    131 H57       -15.1940    0.9500    0.8970 ha        1 MOL      0.110022
    132 H58       -14.5340    1.1210   -3.3070 ha        1 MOL      0.110022
    133 H59       -16.0620    1.3830   -1.3830 ha        1 MOL      0.095627
    134 N12       -10.9100    2.0900    0.3350 n         1 MOL      0.302072
    135 C45       -10.9100    2.7850   -0.9340 c3        1 MOL      0.023617
    136 C46        -9.4460    3.2920   -1.2880 c         1 MOL      0.493006
    137 O20        -9.0700    3.2990   -2.4630 o         1 MOL     -0.577382
    138 C47       -11.9260    3.9150   -0.7910 c3        1 MOL     -0.148359
    139 C48       -11.8680    4.2850    0.6110 c3        1 MOL      0.039580
    140 C49       -11.5140    2.9530    1.3320 c3        1 MOL     -0.254855
    141 H60       -11.2250    2.0620   -1.6900 h1        1 MOL     -0.020003
    142 H61       -11.5940    4.6950   -1.4660 hc        1 MOL      0.056853
    143 H62       -12.9510    3.6550   -1.0500 hc        1 MOL      0.056853
    144 H63       -11.0420    4.9810    0.7500 hc        1 MOL      0.001220
    145 H64       -12.8460    4.6560    0.9210 hc        1 MOL      0.001220
    146 H65       -10.7570    3.0420    2.1090 h1        1 MOL      0.085845
    147 H66       -12.5150    2.6370    1.6220 h1        1 MOL      0.085845
    148 N13        -8.6340    3.6890   -0.3250 n         1 MOL     -0.234362
    149 C50        -7.2550    4.0330   -0.3520 c3        1 MOL      0.115159
    150 C51        -7.1920    5.4010   -1.0240 c         1 MOL      0.395003
    151 O21        -7.6270    6.2990   -0.2990 o         1 MOL     -0.596772
    152 C52        -6.6060    3.9750    1.0310 c3        1 MOL     -0.004383
    153 C53        -6.6830    2.5850    1.6370 c3        1 MOL     -0.113992
    154 C54        -5.8800    2.5470    2.9630 c         1 MOL      0.664280
    155 O22        -6.5810    2.2250    3.9820 o         1 MOL     -0.691423
    156 O23        -4.6220    2.6940    3.0560 o         1 MOL     -0.691423
    157 H67        -8.9900    3.7960    0.6160 hn        1 MOL      0.272871
    158 H68        -6.6590    3.3530   -0.9750 h1        1 MOL      0.068207
    159 H69        -7.0980    4.6370    1.7480 hc        1 MOL      0.012669
    160 H70        -5.5900    4.3570    0.9930 hc        1 MOL      0.012669
    161 H71        -6.1820    1.8960    0.9700 hc        1 MOL     -0.006004
    162 H72        -7.7130    2.2650    1.8250 hc        1 MOL     -0.006004
    163 N14        -6.8980    5.6940   -2.2920 n         1 MOL     -0.322111
    164 C55        -6.5810    4.7200   -3.3850 c3        1 MOL     -0.174705
    165 H73        -5.5230    4.4630   -3.3470 h1        1 MOL      0.094260
    166 H74        -7.1790    3.8180   -3.2530 h1        1 MOL      0.094260
    167 H75        -6.8110    5.1700   -4.3510 h1        1 MOL      0.094260
    168 H76        -7.0590    6.6500   -2.5740 hn        1 MOL      0.261516
    169 Ca1         8.2500    0.0400   -1.9960 Ca        1 MOL      1.782112
    170 O24         6.2390    1.3980   -3.3830 oh        1 MOL     -0.852445
    171 H77         5.5110    0.8120   -3.2040 ho        1 MOL      0.412352
    172 H78         5.9310    1.9470   -4.0980 ho        1 MOL      0.412352
    173 O25         7.4270   -1.3660   -4.2210 oh        1 MOL     -0.852445
    174 H79         7.5290   -2.2850   -4.4600 ho        1 MOL      0.412352
    175 H80         6.9580   -0.9800   -4.9610 ho        1 MOL      0.412352
    176 O26         9.8550   -2.1600   -2.1090 oh        1 MOL     -0.852445
    177 H81        10.4150   -2.1090   -1.3400 ho        1 MOL      0.412352
    178 H82        10.4570   -2.2690   -2.8430 ho        1 MOL      0.412352
    179 O27        10.0220    0.6220   -4.0760 oh        1 MOL     -0.852445
    180 H83        10.8410    0.4180   -4.5110 ho        1 MOL      0.412352
    181 H84         9.8220    1.5140   -4.3360 ho        1 MOL      0.412352
@<TRIPOS>BOND
     1    1    2 1   
     2    1    4 1   
     3    1    5 1   
     4    1    6 1   
     5    2    3 2   
     6    2    7 1   
     7    7    8 1   
     8    7   15 1   
     9    8    9 1   
    10    8   11 1   
    11    8   16 1   
    12    9   10 2   
    13    9   19 1   
    14   11   12 1   
    15   11   17 1   
    16   11   18 1   
    17   12   13 1   
    18   12   14 1   
    19   19   20 1   
    20   19   24 1   
    21   20   21 1   
    22   20   23 1   
    23   20   25 1   
    24   21   22 2   
    25   21   29 1   
    26   23   26 1   
    27   23   27 1   
    28   23   28 1   
    29   29   30 1   
    30   29   37 1   
    31   30   31 1   
    32   30   33 1   
    33   30   38 1   
    34   31   32 2   
    35   31   41 1   
    36   33   34 1   
    37   33   39 1   
    38   33   40 1   
    39   34   35 1   
    40   34   36 1   
    41   41   42 1   
    42   41   45 1   
    43   42   43 1   
    44   42   46 1   
    45   42   47 1   
    46   43   44 2   
    47   43   48 1   
    48   48   49 1   
    49   48   56 1   
    50   49   50 1   
    51   49   52 1   
    52   49   57 1   
    53   50   51 2   
    54   50   62 1   
    55   52   53 1   
    56   52   58 1   
    57   52   59 1   
    58   53   54 1   
    59   53   55 2   
    60   54   60 1   
    61   54   61 1   
    62   62   63 1   
    63   62   66 1   
    64   63   64 1   
    65   63   67 1   
    66   63   68 1   
    67   64   65 2   
    68   64   69 1   
    69   69   70 1   
    70   69   76 1   
    71   70   71 1   
    72   70   73 1   
    73   70   77 1   
    74   71   72 2   
    75   71   83 1   
    76   73   74 1   
    77   73   75 1   
    78   73   78 1   
    79   74   80 1   
    80   74   81 1   
    81   74   82 1   
    82   75   79 1   
    83   83   84 1   
    84   83   91 1   
    85   84   85 1   
    86   84   87 1   
    87   84   92 1   
    88   85   86 2   
    89   85  102 1   
    90   87   88 1   
    91   87   89 1   
    92   87   93 1   
    93   88   90 1   
    94   88   94 1   
    95   88   95 1   
    96   89   96 1   
    97   89   97 1   
    98   89   98 1   
    99   90   99 1   
   100   90  100 1   
   101   90  101 1   
   102  102  103 1   
   103  102  110 1   
   104  103  104 1   
   105  103  106 1   
   106  103  111 1   
   107  104  105 2   
   108  104  114 1   
   109  106  107 1   
   110  106  112 1   
   111  106  113 1   
   112  107  108 1   
   113  107  109 1   
   114  114  115 1   
   115  114  125 1   
   116  115  116 1   
   117  115  118 1   
   118  115  126 1   
   119  116  117 2   
   120  116  134 1   
   121  118  119 1   
   122  118  127 1   
   123  118  128 1   
   124  119  120 ar  
   125  119  121 ar  
   126  120  122 ar  
   127  120  129 1   
   128  121  123 ar  
   129  121  130 1   
   130  122  124 ar  
   131  122  131 1   
   132  123  124 ar  
   133  123  132 1   
   134  124  133 1   
   135  134  135 1   
   136  134  140 1   
   137  135  136 1   
   138  135  138 1   
   139  135  141 1   
   140  136  137 2   
   141  136  148 1   
   142  138  139 1   
   143  138  142 1   
   144  138  143 1   
   145  139  140 1   
   146  139  144 1   
   147  139  145 1   
   148  140  146 1   
   149  140  147 1   
   150  148  149 1   
   151  148  157 1   
   152  149  150 1   
   153  149  152 1   
   154  149  158 1   
   155  150  151 2   
   156  150  163 1   
   157  152  153 1   
   158  152  159 1   
   159  152  160 1   
   160  153  154 1   
   161  153  161 1   
   162  153  162 1   
   163  154  155 1   
   164  154  156 1   
   165  163  164 1   
   166  163  168 1   
   167  164  165 1   
   168  164  166 1   
   169  164  167 1   
   170  170  171 1   
   171  170  172 1   
   172  173  174 1   
   173  173  175 1   
   174  176  177 1   
   175  176  178 1   
   176  179  180 1   
   177  179  181 1   
@<TRIPOS>SUBSTRUCTURE
     1 MOL         1 TEMP              0 ****  ****    0 ROOT
