@<TRIPOS>MOLECULE
MOL
  181   177     1     0     0
SMALL
resp


@<TRIPOS>ATOM
      1 C1         10.8140    6.6680   -0.9960 c3        1 MOL     -0.278808
      2 C2          9.9000    5.7670   -0.1780 c         1 MOL      0.645262
      3 O1          9.0190    6.2710    0.5870 o         1 MOL     -0.581640
      4 H1         11.1320    7.5130   -0.3850 hc        1 MOL      0.076626
      5 H2         11.6880    6.1030   -1.3180 hc        1 MOL      0.076626
      6 H3         10.2760    7.0350   -1.8690 hc        1 MOL      0.076626
      7 N1          9.8990    4.3930   -0.2470 n         1 MOL     -0.620204
      8 C3         10.7060    3.5090   -1.0050 c3        1 MOL      0.193549
      9 C4         11.2890    2.3140   -0.2330 c         1 MOL      0.351699
     10 O2         12.0060    1.5070   -0.7880 o         1 MOL     -0.522517
     11 C5          9.9950    2.9740   -2.3330 c3        1 MOL     -0.298709
     12 C6          8.6970    2.2470   -2.0120 c         1 MOL      0.789665
     13 O3          8.0410    1.7460   -3.0040 o         1 MOL     -0.753409
     14 O4          8.2320    2.1460   -0.8560 o         1 MOL     -0.753409
     15 H4          9.0840    4.0460    0.2460 hn        1 MOL      0.384384
     16 H5         11.5470    4.1090   -1.3550 h1        1 MOL      0.056438
     17 H6         10.6630    2.3990   -2.9580 hc        1 MOL      0.088975
     18 H7          9.7370    3.8410   -2.9420 hc        1 MOL      0.088975
     19 N2         11.0040    2.3420    1.0750 n         1 MOL     -0.267671
     20 C7         11.5640    1.4340    2.0700 c3        1 MOL      0.254872
     21 C8         10.7330    0.1610    2.3680 c         1 MOL      0.356767
     22 O5         11.2150   -0.6680    3.1650 o         1 MOL     -0.540492
     23 C9         11.7500    2.2250    3.3730 c3        1 MOL     -0.517022
     24 H8         10.4630    3.1200    1.4320 hn        1 MOL      0.195204
     25 H9         12.5160    1.1140    1.6240 h1        1 MOL      0.044557
     26 H10        11.9780    1.5410    4.1840 hc        1 MOL      0.145073
     27 H11        12.6370    2.8220    3.1480 hc        1 MOL      0.145073
     28 H12        10.8700    2.7910    3.7000 hc        1 MOL      0.145073
     29 N3          9.5860   -0.0650    1.6630 n         1 MOL     -0.094029
     30 C10         8.7760   -1.2130    1.8840 c3        1 MOL     -0.185258
     31 C11         8.2600   -1.6940    0.5280 c         1 MOL      0.516406
     32 O6          8.4060   -1.0520   -0.5340 o         1 MOL     -0.533816
     33 C12         7.6630   -0.7160    2.8670 c3        1 MOL     -0.137979
     34 C13         6.9210    0.5140    2.4540 c         1 MOL      0.745071
     35 O7          6.9290    1.4830    3.2330 o         1 MOL     -0.701529
     36 O8          6.3350    0.5450    1.3830 o         1 MOL     -0.701529
     37 H13         9.2660    0.5830    0.9660 hn        1 MOL      0.142489
     38 H14         9.3910   -2.0160    2.2890 h1        1 MOL      0.112397
     39 H15         8.0920   -0.5240    3.8470 hc        1 MOL      0.038940
     40 H16         6.9080   -1.4910    2.9430 hc        1 MOL      0.038940
     41 N4          7.4620   -2.7530    0.5570 n         1 MOL     -0.335592
     42 C14         7.0240   -3.5300   -0.6120 c3        1 MOL     -0.329699
     43 C15         5.7550   -3.0660   -1.3690 c         1 MOL      0.727869
     44 O9          5.3380   -1.8660   -1.1870 o         1 MOL     -0.689337
     45 H17         7.2870   -3.1320    1.4710 hn        1 MOL      0.307183
     46 H18         6.8430   -4.5480   -0.2550 h1        1 MOL      0.143346
     47 H19         7.8780   -3.5130   -1.2830 h1        1 MOL      0.143346
     48 N5          5.0440   -4.0060   -2.0460 n         1 MOL     -0.570071
     49 C16         3.6920   -3.8910   -2.5090 c3        1 MOL      0.153079
     50 C17         2.6820   -4.0790   -1.3150 c         1 MOL      0.609266
     51 O10         2.8380   -5.0720   -0.5960 o         1 MOL     -0.546773
     52 C18         3.4410   -4.8930   -3.6720 c3        1 MOL     -0.396870
     53 C19         4.2840   -4.7070   -4.9550 c         1 MOL      0.796731
     54 N6          5.0080   -5.6670   -5.5160 n         1 MOL     -0.855824
     55 O11         4.3300   -3.6210   -5.4130 o         1 MOL     -0.558161
     56 H20         5.4430   -4.9380   -2.0330 hn        1 MOL      0.298097
     57 H21         3.5750   -2.8980   -2.9450 h1        1 MOL      0.084493
     58 H22         2.4020   -4.7980   -3.9850 hc        1 MOL      0.111182
     59 H23         3.6800   -5.8660   -3.2550 hc        1 MOL      0.111182
     60 H24         4.9840   -6.6440   -5.2480 hn        1 MOL      0.368506
     61 H25         5.5470   -5.4970   -6.3610 hn        1 MOL      0.368506
     62 N7          1.5560   -3.3440   -1.2750 n         1 MOL     -0.517715
     63 C20         0.5960   -3.3730   -0.2260 c3        1 MOL     -0.018928
     64 C21         0.8950   -2.4120    0.9690 c         1 MOL      0.658587
     65 O12         1.6240   -1.4040    0.8520 o         1 MOL     -0.606493
     66 H26         1.6320   -2.5170   -1.8460 hn        1 MOL      0.315562
     67 H27         0.4560   -4.3940    0.1210 h1        1 MOL      0.117165
     68 H28        -0.2790   -2.9300   -0.7040 h1        1 MOL      0.117165
     69 N8          0.3180   -2.6510    2.1000 n         1 MOL     -0.552776
     70 C22        -0.7400   -3.5130    2.4930 c3        1 MOL      0.042873
     71 C23        -2.1330   -2.8920    2.3730 c         1 MOL      0.317183
     72 O13        -3.1180   -3.5880    1.9900 o         1 MOL     -0.528842
     73 C24        -0.5980   -4.0950    3.8800 c3        1 MOL      0.356883
     74 C25         0.3890   -5.2550    4.0440 c3        1 MOL     -0.508248
     75 O14        -0.2460   -3.1750    4.8850 oh        1 MOL     -0.605025
     76 H29         0.7960   -2.1630    2.8450 hn        1 MOL      0.344332
     77 H30        -0.7490   -4.4060    1.8660 h1        1 MOL      0.063020
     78 H31        -1.6130   -4.4610    4.0650 h1        1 MOL      0.010724
     79 H32        -0.6350   -3.5220    5.6890 ho        1 MOL      0.402014
     80 H33         1.4150   -4.9110    3.9100 hc        1 MOL      0.127147
     81 H34         0.3260   -5.6890    5.0450 hc        1 MOL      0.127147
     82 H35         0.2330   -6.0810    3.3610 hc        1 MOL      0.127147
     83 N9         -2.2200   -1.5970    2.6460 n         1 MOL     -0.083167
     84 C26        -3.4310   -0.7380    2.4750 c3        1 MOL     -0.081759
     85 C27        -3.3370    0.0220    1.1580 c         1 MOL      0.473001
     86 O15        -2.4000    0.7880    0.8710 o         1 MOL     -0.559914
     87 C28        -3.4770    0.2150    3.6960 c3        1 MOL      0.032909
     88 C29        -3.5540   -0.5800    5.0640 c3        1 MOL      0.004345
     89 C30        -4.7310    1.0620    3.6200 c3        1 MOL     -0.260129
     90 C31        -4.6060   -1.7430    5.1080 c3        1 MOL     -0.093330
     91 H36        -1.3820   -1.1110    2.9210 hn        1 MOL      0.195404
     92 H37        -4.3740   -1.2790    2.5090 h1        1 MOL      0.124289
     93 H38        -2.6210    0.8810    3.7440 hc        1 MOL      0.020166
     94 H39        -3.7150    0.1280    5.8670 hc        1 MOL     -0.016836
     95 H40        -2.5570   -0.9960    5.1950 hc        1 MOL     -0.016836
     96 H41        -5.6020    0.4840    3.3340 hc        1 MOL      0.107537
     97 H42        -4.9840    1.4560    4.6040 hc        1 MOL      0.107537
     98 H43        -4.5390    1.8450    2.8790 hc        1 MOL      0.107537
     99 H44        -5.5700   -1.4200    4.7230 hc        1 MOL      0.016720
    100 H45        -4.1900   -2.5910    4.5580 hc        1 MOL      0.016720
    101 H46        -4.6580   -2.0730    6.1490 hc        1 MOL      0.016720
    102 N10        -4.3560    0.0860    0.2760 n         1 MOL     -0.244008
    103 C32        -5.4300   -0.8490    0.0280 c3        1 MOL      0.059523
    104 C33        -6.5190   -0.2000   -0.8300 c         1 MOL      0.430594
    105 O16        -6.2850    0.7220   -1.6000 o         1 MOL     -0.422348
    106 C34        -4.9600   -2.1120   -0.7230 c3        1 MOL     -0.029691
    107 C35        -3.9860   -1.8750   -1.9640 c         1 MOL      0.565059
    108 O17        -2.8130   -2.2930   -1.7400 o         1 MOL     -0.671476
    109 O18        -4.4250   -1.2700   -2.9570 o         1 MOL     -0.671476
    110 H47        -4.1860    0.6600   -0.5440 hn        1 MOL      0.258288
    111 H48        -5.8900   -1.1830    0.9560 h1        1 MOL      0.014343
    112 H49        -5.8310   -2.7350   -0.9360 hc        1 MOL     -0.016510
    113 H50        -4.4230   -2.6770    0.0290 hc        1 MOL     -0.016510
    114 N11        -7.7880   -0.6040   -0.5620 n         1 MOL     -0.612949
    115 C36        -8.9420   -0.1850   -1.2500 c3        1 MOL      0.779798
    116 C37       -10.0130    0.3820   -0.2980 c         1 MOL      0.092932
    117 O19       -10.2010   -0.1490    0.7930 o         1 MOL     -0.455395
    118 C38        -9.4840   -1.3170   -2.0660 c3        1 MOL     -0.363326
    119 C39        -9.9840   -2.5710   -1.2560 ca        1 MOL      0.113584
    120 C40        -9.2330   -3.7470   -1.2110 ca        1 MOL     -0.163018
    121 C41       -11.2380   -2.4820   -0.6460 ca        1 MOL     -0.163018
    122 C42        -9.7970   -4.8570   -0.5350 ca        1 MOL     -0.108808
    123 C43       -11.7840   -3.5980    0.0140 ca        1 MOL     -0.108808
    124 C44       -11.0160   -4.8090    0.1100 ca        1 MOL     -0.129553
    125 H51        -7.9130   -1.4010    0.0380 hn        1 MOL      0.304652
    126 H52        -8.6050    0.6140   -1.9140 h1        1 MOL     -0.118205
    127 H53        -8.7010   -1.5810   -2.7770 hc        1 MOL      0.076748
    128 H54       -10.3480   -0.9500   -2.6210 hc        1 MOL      0.076748
    129 H55        -8.2260   -3.7550   -1.6030 ha        1 MOL      0.130012
    130 H56       -11.7400   -1.5360   -0.7590 ha        1 MOL      0.130012
    131 H57        -9.3460   -5.8370   -0.6220 ha        1 MOL      0.096076
    132 H58       -12.7830   -3.4680    0.3980 ha        1 MOL      0.096076
    133 H59       -11.4470   -5.6790    0.5920 ha        1 MOL      0.098713
    134 N12       -10.7160    1.4570   -0.7060 n         1 MOL      0.079222
    135 C45       -10.6020    2.2780   -1.8760 c3        1 MOL      0.151991
    136 C46        -9.2450    3.0690   -1.9120 c         1 MOL      0.376058
    137 O20        -8.5970    3.1450   -2.9390 o         1 MOL     -0.542094
    138 C47       -11.7960    3.2720   -1.9630 c3        1 MOL     -0.199309
    139 C48       -12.7530    2.6390   -0.9980 c3        1 MOL     -0.009941
    140 C49       -11.9200    1.8380   -0.0280 c3        1 MOL     -0.222485
    141 H60       -10.6530    1.6490   -2.7680 h1        1 MOL     -0.006749
    142 H61       -11.4090    4.2290   -1.6060 hc        1 MOL      0.076750
    143 H62       -12.2690    3.2570   -2.9410 hc        1 MOL      0.076750
    144 H63       -13.3360    3.3760   -0.4380 hc        1 MOL      0.021294
    145 H64       -13.4130    1.9900   -1.5660 hc        1 MOL      0.021294
    146 H65       -11.6660    2.4470    0.8380 h1        1 MOL      0.104652
    147 H66       -12.5680    1.0120    0.2680 h1        1 MOL      0.104652
    148 N13        -8.7920    3.5030   -0.7710 n         1 MOL     -0.337494
    149 C50        -7.4350    4.1820   -0.5620 c3        1 MOL      0.119590
    150 C51        -7.3890    5.6010   -1.1970 c         1 MOL      0.399959
    151 O21        -7.9590    6.5550   -0.6260 o         1 MOL     -0.581779
    152 C52        -7.1640    4.3190    0.9240 c3        1 MOL      0.199526
    153 C53        -7.0580    3.0030    1.6650 c3        1 MOL     -0.153736
    154 C54        -7.0560    3.2050    3.2270 c         1 MOL      0.754432
    155 O22        -8.0320    2.7780    3.8940 o         1 MOL     -0.745049
    156 O23        -6.1830    3.9230    3.7730 o         1 MOL     -0.745049
    157 H67        -9.2570    3.2800    0.0940 hn        1 MOL      0.272791
    158 H68        -6.6640    3.5060   -0.9400 h1        1 MOL      0.065849
    159 H69        -7.9860    4.8810    1.3740 hc        1 MOL     -0.036981
    160 H70        -6.2820    4.9430    1.0920 hc        1 MOL     -0.036981
    161 H71        -6.1320    2.5290    1.3460 hc        1 MOL     -0.068623
    162 H72        -7.8910    2.3720    1.3720 hc        1 MOL     -0.068623
    163 N14        -6.8890    5.8000   -2.3900 n         1 MOL     -0.275723
    164 C55        -6.0670    4.8890   -3.2280 c3        1 MOL     -0.139443
    165 H73        -5.6950    4.0690   -2.6140 h1        1 MOL      0.081767
    166 H74        -6.6780    4.4880   -4.0370 h1        1 MOL      0.081767
    167 H75        -5.2250    5.4400   -3.6450 h1        1 MOL      0.081767
    168 H76        -6.8880    6.7740   -2.6640 hn        1 MOL      0.244181
    169 Ca1         6.1570    0.6800   -1.1640 Ca        1 MOL      1.757412
    170 O24         7.1220   -0.8510   -3.1790 oh        1 MOL     -0.811993
    171 H77         8.0810   -0.7950   -3.1270 ho        1 MOL      0.407039
    172 H78         6.9630   -1.5240   -3.8390 ho        1 MOL      0.407039
    173 O25         3.4830    0.4890   -1.1060 oh        1 MOL     -0.811993
    174 H79         3.0320    0.6120   -0.2680 ho        1 MOL      0.407039
    175 H80         2.8640    0.0080   -1.6500 ho        1 MOL      0.407039
    176 O26         5.1200    2.8450    0.1240 oh        1 MOL     -0.811993
    177 H81         4.1700    2.8460    0.2110 ho        1 MOL      0.407039
    178 H82         5.4320    3.0660    1.0010 ho        1 MOL      0.407039
    179 O27         4.7050    1.7570   -3.2450 oh        1 MOL     -0.811993
    180 H83         4.7090    2.3870   -3.9550 ho        1 MOL      0.407039
    181 H84         4.0500    1.1050   -3.4910 ho        1 MOL      0.407039
@<TRIPOS>BOND
     1    1    2 1   
     2    1    4 1   
     3    1    5 1   
     4    1    6 1   
     5    2    3 2   
     6    2    7 1   
     7    7    8 1   
     8    7   15 1   
     9    8    9 1   
    10    8   11 1   
    11    8   16 1   
    12    9   10 2   
    13    9   19 1   
    14   11   12 1   
    15   11   17 1   
    16   11   18 1   
    17   12   13 1   
    18   12   14 1   
    19   19   20 1   
    20   19   24 1   
    21   20   21 1   
    22   20   23 1   
    23   20   25 1   
    24   21   22 2   
    25   21   29 1   
    26   23   26 1   
    27   23   27 1   
    28   23   28 1   
    29   29   30 1   
    30   29   37 1   
    31   30   31 1   
    32   30   33 1   
    33   30   38 1   
    34   31   32 2   
    35   31   41 1   
    36   33   34 1   
    37   33   39 1   
    38   33   40 1   
    39   34   35 1   
    40   34   36 1   
    41   41   42 1   
    42   41   45 1   
    43   42   43 1   
    44   42   46 1   
    45   42   47 1   
    46   43   44 2   
    47   43   48 1   
    48   48   49 1   
    49   48   56 1   
    50   49   50 1   
    51   49   52 1   
    52   49   57 1   
    53   50   51 2   
    54   50   62 1   
    55   52   53 1   
    56   52   58 1   
    57   52   59 1   
    58   53   54 1   
    59   53   55 2   
    60   54   60 1   
    61   54   61 1   
    62   62   63 1   
    63   62   66 1   
    64   63   64 1   
    65   63   67 1   
    66   63   68 1   
    67   64   65 2   
    68   64   69 1   
    69   69   70 1   
    70   69   76 1   
    71   70   71 1   
    72   70   73 1   
    73   70   77 1   
    74   71   72 2   
    75   71   83 1   
    76   73   74 1   
    77   73   75 1   
    78   73   78 1   
    79   74   80 1   
    80   74   81 1   
    81   74   82 1   
    82   75   79 1   
    83   83   84 1   
    84   83   91 1   
    85   84   85 1   
    86   84   87 1   
    87   84   92 1   
    88   85   86 2   
    89   85  102 1   
    90   87   88 1   
    91   87   89 1   
    92   87   93 1   
    93   88   90 1   
    94   88   94 1   
    95   88   95 1   
    96   89   96 1   
    97   89   97 1   
    98   89   98 1   
    99   90   99 1   
   100   90  100 1   
   101   90  101 1   
   102  102  103 1   
   103  102  110 1   
   104  103  104 1   
   105  103  106 1   
   106  103  111 1   
   107  104  105 2   
   108  104  114 1   
   109  106  107 1   
   110  106  112 1   
   111  106  113 1   
   112  107  108 1   
   113  107  109 1   
   114  114  115 1   
   115  114  125 1   
   116  115  116 1   
   117  115  118 1   
   118  115  126 1   
   119  116  117 2   
   120  116  134 1   
   121  118  119 1   
   122  118  127 1   
   123  118  128 1   
   124  119  120 ar  
   125  119  121 ar  
   126  120  122 ar  
   127  120  129 1   
   128  121  123 ar  
   129  121  130 1   
   130  122  124 ar  
   131  122  131 1   
   132  123  124 ar  
   133  123  132 1   
   134  124  133 1   
   135  134  135 1   
   136  134  140 1   
   137  135  136 1   
   138  135  138 1   
   139  135  141 1   
   140  136  137 2   
   141  136  148 1   
   142  138  139 1   
   143  138  142 1   
   144  138  143 1   
   145  139  140 1   
   146  139  144 1   
   147  139  145 1   
   148  140  146 1   
   149  140  147 1   
   150  148  149 1   
   151  148  157 1   
   152  149  150 1   
   153  149  152 1   
   154  149  158 1   
   155  150  151 2   
   156  150  163 1   
   157  152  153 1   
   158  152  159 1   
   159  152  160 1   
   160  153  154 1   
   161  153  161 1   
   162  153  162 1   
   163  154  155 1   
   164  154  156 1   
   165  163  164 1   
   166  163  168 1   
   167  164  165 1   
   168  164  166 1   
   169  164  167 1   
   170  170  171 1   
   171  170  172 1   
   172  173  174 1   
   173  173  175 1   
   174  176  177 1   
   175  176  178 1   
   176  179  180 1   
   177  179  181 1   
@<TRIPOS>SUBSTRUCTURE
     1 MOL         1 TEMP              0 ****  ****    0 ROOT
