@<TRIPOS>MOLECULE
MOL
  195   189     1     0     0
SMALL
resp


@<TRIPOS>ATOM
      1 C1         -3.6550   -3.7460    3.0390 c3        1 MOL     -0.372200
      2 C2         -2.7720   -3.9360    1.7550 c         1 MOL      0.581012
      3 O1         -2.1640   -2.9930    1.2250 o         1 MOL     -0.481995
      4 H1         -4.6130   -3.3080    2.7570 hc        1 MOL      0.092035
      5 H2         -3.8230   -4.7130    3.5110 hc        1 MOL      0.092035
      6 H3         -3.1450   -3.0830    3.7370 hc        1 MOL      0.092035
      7 N1         -2.6410   -5.0870    1.1280 n         1 MOL     -0.591693
      8 C3         -1.9370   -5.3280   -0.2290 c3        1 MOL      0.013389
      9 C4         -0.4840   -4.9670   -0.1370 c         1 MOL      0.728162
     10 O2          0.1270   -4.4370   -1.1100 o         1 MOL     -0.531943
     11 C5         -2.7100   -4.6330   -1.3710 c3        1 MOL     -0.376678
     12 C6         -4.2480   -4.6080   -1.1110 c         1 MOL      0.891024
     13 O3         -4.8470   -3.5470   -0.8300 o         1 MOL     -0.800882
     14 O4         -4.9470   -5.6880   -1.1260 o         1 MOL     -0.800882
     15 H4         -2.9610   -5.9140    1.6200 hn        1 MOL      0.291492
     16 H5         -2.0230   -6.3910   -0.4570 h1        1 MOL      0.111707
     17 H6         -2.4790   -5.2160   -2.2560 hc        1 MOL      0.130004
     18 H7         -2.4000   -3.6450   -1.6920 hc        1 MOL      0.130004
     19 N2          0.0920   -5.2060    1.0480 n         1 MOL     -0.669681
     20 C7          1.5180   -4.9370    1.2660 c3        1 MOL     -0.258447
     21 C8          2.3680   -5.9650    0.4260 c         1 MOL      0.749598
     22 O5          2.0180   -7.1080    0.4030 o         1 MOL     -0.622309
     23 C9          1.8960   -4.8750    2.8110 c3        1 MOL      0.557505
     24 C10         1.9950   -6.2180    3.5690 c3        1 MOL     -0.206232
     25 C11         1.0710   -3.8090    3.5040 c3        1 MOL     -0.291120
     26 C12         2.6200   -6.2980    5.0200 c3        1 MOL     -0.112045
     27 H8         -0.3770   -5.5590    1.8610 hn        1 MOL      0.374793
     28 H9          1.7050   -3.9720    0.7900 h1        1 MOL      0.201433
     29 H10         2.8710   -4.3990    2.9060 hc        1 MOL     -0.060785
     30 H11         2.6300   -6.7880    2.8910 hc        1 MOL      0.037806
     31 H12         0.9610   -6.5490    3.5140 hc        1 MOL      0.037806
     32 H13         0.9430   -3.0150    2.7670 hc        1 MOL      0.047576
     33 H14         0.0690   -4.2220    3.6490 hc        1 MOL      0.047576
     34 H15         1.4470   -3.5920    4.5040 hc        1 MOL      0.047576
     35 H16         1.8520   -6.2640    5.7980 hc        1 MOL      0.034806
     36 H17         3.1100   -7.2680    5.1020 hc        1 MOL      0.034806
     37 H18         3.3440   -5.5300    5.3020 hc        1 MOL      0.034806
     38 N3          3.5240   -5.6500   -0.1360 n         1 MOL     -0.687342
     39 C13         4.3530   -4.4770    0.0850 c3        1 MOL      0.106815
     40 C14         4.8410   -3.7490   -1.1690 c         1 MOL      0.359560
     41 O6          5.1440   -2.5270   -1.0770 o         1 MOL     -0.493102
     42 C15         5.5830   -4.7310    1.0870 c3        1 MOL     -0.058229
     43 C16         6.6650   -5.6200    0.6660 c         1 MOL      0.715639
     44 O7          6.8430   -5.9760   -0.5390 o         1 MOL     -0.728270
     45 O8          7.4510   -5.9730    1.5920 o         1 MOL     -0.728270
     46 H19         3.9650   -6.4000   -0.6560 hn        1 MOL      0.357761
     47 H20         3.7560   -3.7200    0.6040 h1        1 MOL     -0.011913
     48 H21         5.1030   -5.2790    1.8980 hc        1 MOL      0.020096
     49 H22         5.9280   -3.7910    1.5120 hc        1 MOL      0.020096
     50 N4          5.0710   -4.4030   -2.3100 n         1 MOL     -0.058444
     51 C17         5.3940   -3.8270   -3.6180 c3        1 MOL     -0.183699
     52 C18         6.4960   -2.7790   -3.5450 c         1 MOL      0.535965
     53 O9          7.6380   -3.2410   -3.4290 o         1 MOL     -0.538679
     54 H23         4.7990   -5.3720   -2.2710 hn        1 MOL      0.184244
     55 H24         4.5170   -3.3370   -4.0450 h1        1 MOL      0.067461
     56 H25         5.6710   -4.6670   -4.2550 h1        1 MOL      0.067461
     57 N5          6.1500   -1.5270   -3.6590 n         1 MOL     -0.439373
     58 C19         7.0490   -0.3300   -3.5690 c3        1 MOL      0.146336
     59 C20         7.6670    0.0190   -2.2060 c         1 MOL      0.334760
     60 O10         8.7420    0.6570   -2.1390 o         1 MOL     -0.552333
     61 C21         6.3420    0.9500   -4.0500 c3        1 MOL     -0.413121
     62 C22         4.9980    1.2080   -3.4650 c         1 MOL      0.721420
     63 O11         4.9260    1.9290   -2.3930 o         1 MOL     -0.676154
     64 O12         3.9290    0.7110   -3.9130 o         1 MOL     -0.676154
     65 H26         5.1710   -1.3450   -3.8410 hn        1 MOL      0.294823
     66 H27         7.9520   -0.5830   -4.1290 h1        1 MOL      0.062321
     67 H28         6.2620    0.8290   -5.1250 hc        1 MOL      0.092339
     68 H29         6.9700    1.8310   -3.8860 hc        1 MOL      0.092339
     69 N6          7.0800   -0.3240   -1.0600 n         1 MOL      0.035699
     70 C23         7.6190   -0.0590    0.2980 c3        1 MOL     -0.545427
     71 C24         7.4110    1.3800    0.8160 c         1 MOL      0.687041
     72 O13         7.8000    1.6870    1.9320 o         1 MOL     -0.619836
     73 H30         6.2220   -0.8490   -1.1420 hn        1 MOL      0.180060
     74 H31         8.6990   -0.2110    0.2160 h1        1 MOL      0.190839
     75 H32         7.0700   -0.7920    0.8970 h1        1 MOL      0.190839
     76 N7          6.7310    2.1690    0.0130 n         1 MOL     -0.083242
     77 C25         6.5660    3.6540    0.1380 c3        1 MOL      0.065278
     78 C26         5.8810    4.1940    1.4080 c         1 MOL      0.577966
     79 O14         6.0420    5.3560    1.7960 o         1 MOL     -0.526992
     80 C27         7.7740    4.4240   -0.3670 c3        1 MOL     -0.015991
     81 C28         8.1890    4.1220   -1.9040 c3        1 MOL     -0.083261
     82 C29         8.9780    5.2470   -2.5710 c         1 MOL      0.512684
     83 N8          9.7450    5.0270   -3.6210 n         1 MOL     -0.731464
     84 O15         8.6460    6.4070   -2.3600 o         1 MOL     -0.540211
     85 H33         6.3930    1.8590   -0.8940 hn        1 MOL     -0.018505
     86 H34         5.7790    3.8620   -0.5840 h1        1 MOL      0.104176
     87 H35         8.6210    4.2460    0.2960 hc        1 MOL     -0.009275
     88 H36         7.4260    5.4540   -0.3270 hc        1 MOL     -0.009275
     89 H37         7.2740    4.1500   -2.5010 hc        1 MOL      0.075949
     90 H38         8.6020    3.1360   -2.0960 hc        1 MOL      0.075949
     91 H39         9.8430    4.0520   -3.8790 hn        1 MOL      0.336913
     92 H40        10.3660    5.7880   -3.8830 hn        1 MOL      0.336913
     93 N9          4.9830    3.3840    1.9870 n         1 MOL     -0.523831
     94 C30         4.3480    3.6230    3.2560 c3        1 MOL      0.032825
     95 C31         2.8030    3.7360    3.2980 c         1 MOL      0.484162
     96 O16         2.2160    4.3890    4.1910 o         1 MOL     -0.583225
     97 C32         4.6530    2.5350    4.2900 c3        1 MOL      0.320907
     98 C33         4.6860    1.0400    3.8460 c3        1 MOL     -0.404233
     99 C34         6.0970    2.8640    4.7720 c3        1 MOL     -0.404233
    100 H41         4.9410    2.4500    1.6150 hn        1 MOL      0.236825
    101 H42         4.6800    4.5660    3.7020 h1        1 MOL      0.064944
    102 H43         4.0870    2.6890    5.2090 hc        1 MOL      0.004591
    103 H44         5.0400    0.7980    2.8440 hc        1 MOL      0.090134
    104 H45         5.2150    0.4880    4.6220 hc        1 MOL      0.090134
    105 H46         3.6440    0.7600    4.0110 hc        1 MOL      0.090134
    106 H47         6.8480    2.5550    4.0400 hc        1 MOL      0.090134
    107 H48         6.2510    3.9170    5.0240 hc        1 MOL      0.090134
    108 H49         6.1760    2.3280    5.7200 hc        1 MOL      0.090134
    109 N10         2.2230    3.0300    2.3940 n         1 MOL     -0.344105
    110 C35         0.7690    2.9060    2.2890 c3        1 MOL      0.090614
    111 C36         0.4030    3.4610    0.8860 c         1 MOL      0.635634
    112 O17         1.2880    3.9810    0.1830 o         1 MOL     -0.551866
    113 C37         0.2970    1.4400    2.4540 c3        1 MOL     -0.279847
    114 C38         0.4800    0.8960    3.8190 c         1 MOL      0.696829
    115 N11         0.4810   -0.3910    3.9130 n         1 MOL     -0.854742
    116 O18         0.7280    1.5790    4.7680 o         1 MOL     -0.547466
    117 H50         2.7580    2.6940    1.6140 hn        1 MOL      0.265593
    118 H51         0.1960    3.5480    2.9500 h1        1 MOL      0.075034
    119 H52         0.8550    0.8340    1.7430 hc        1 MOL      0.104507
    120 H53        -0.7340    1.3640    2.1190 hc        1 MOL      0.104507
    121 H54         0.2320   -0.9330    3.1010 hn        1 MOL      0.370851
    122 H55         0.8470   -0.7250    4.7880 hn        1 MOL      0.370851
    123 N12        -0.8430    3.3860    0.5520 n         1 MOL     -0.534617
    124 C39        -1.6070    4.0270   -0.5120 c3        1 MOL      0.065240
    125 C40        -3.0310    4.2310   -0.1090 c         1 MOL      0.597079
    126 O19        -3.6280    3.4420    0.6640 o         1 MOL     -0.547705
    127 C41        -1.5140    3.1650   -1.7610 c3        1 MOL     -0.178733
    128 C42        -2.3680    1.9040   -1.8070 ca        1 MOL      0.036647
    129 C43        -2.3780    0.8390   -0.8330 ca        1 MOL     -0.163997
    130 C44        -3.2370    1.7620   -2.9340 ca        1 MOL     -0.163997
    131 C45        -3.2070   -0.3060   -0.9620 ca        1 MOL     -0.263722
    132 C46        -3.9670    0.5760   -3.1640 ca        1 MOL     -0.263722
    133 C47        -3.9610   -0.4280   -2.1820 ca        1 MOL      0.381331
    134 O20        -4.5690   -1.5600   -2.4600 oh        1 MOL     -0.525983
    135 H56        -1.4270    2.8390    1.1660 hn        1 MOL      0.247776
    136 H57        -1.1660    4.9910   -0.7610 h1        1 MOL      0.082720
    137 H58        -0.4600    2.9090   -1.7390 hc        1 MOL      0.102242
    138 H59        -1.6950    3.7380   -2.6730 hc        1 MOL      0.102242
    139 H60        -1.6380    0.9100   -0.0470 ha        1 MOL      0.121909
    140 H61        -3.2330    2.5040   -3.7210 ha        1 MOL      0.121909
    141 H62        -3.1450   -1.0740   -0.2080 ha        1 MOL      0.146354
    142 H63        -4.5700    0.3670   -4.0360 ha        1 MOL      0.146354
    143 H64        -4.4530   -2.1630   -1.7160 ho        1 MOL      0.414641
    144 N13        -3.5900    5.3230   -0.5480 n         1 MOL     -0.540898
    145 C48        -4.9620    5.6210   -0.3960 c3        1 MOL      0.090845
    146 C49        -5.8000    5.2470   -1.6300 c         1 MOL      0.594715
    147 O21        -5.7180    5.9400   -2.6460 o         1 MOL     -0.593911
    148 C50        -5.0730    7.1020   -0.0910 c3        1 MOL      0.104796
    149 C51        -6.5170    7.6370    0.1650 c3        1 MOL     -0.419255
    150 C52        -6.4480    9.1070    0.5790 c         1 MOL      0.758810
    151 O22        -5.7750    9.4850    1.5490 o         1 MOL     -0.686126
    152 O23        -7.0570    9.9910   -0.0980 o         1 MOL     -0.686126
    153 H65        -3.0980    5.9240   -1.1950 hn        1 MOL      0.298044
    154 H66        -5.4090    5.0850    0.4370 h1        1 MOL      0.065582
    155 H67        -4.6360    7.7710   -0.8320 hc        1 MOL      0.016218
    156 H68        -4.4280    7.2790    0.7690 hc        1 MOL      0.016218
    157 H69        -6.9230    7.0050    0.9580 hc        1 MOL      0.091946
    158 H70        -7.0510    7.5660   -0.7800 hc        1 MOL      0.091946
    159 N14        -6.5200    4.1380   -1.6810 n         1 MOL     -0.457228
    160 C53        -6.4900    2.9360   -0.8200 c3        1 MOL     -0.033522
    161 C54        -7.0360    3.2220    0.5900 c         1 MOL      0.395409
    162 O24        -8.1670    3.6590    0.6010 o         1 MOL     -0.519999
    163 C55        -7.3340    1.8510   -1.4440 c3        1 MOL     -0.022431
    164 C56        -7.1440    0.4350   -0.8310 c3        1 MOL     -0.137406
    165 C57        -7.8730   -0.6530   -1.5480 c         1 MOL      0.849615
    166 O25        -8.6010   -0.3710   -2.5290 o         1 MOL     -0.758605
    167 O26        -7.8380   -1.7910   -1.1180 o         1 MOL     -0.758605
    168 H71        -7.0830    4.0850   -2.5210 hn        1 MOL      0.281399
    169 H72        -5.4440    2.6500   -0.7350 h1        1 MOL      0.096708
    170 H73        -7.0890    1.6990   -2.5020 hc        1 MOL      0.050349
    171 H74        -8.4080    2.0320   -1.3830 hc        1 MOL      0.050349
    172 H75        -7.3260    0.2700    0.2270 hc        1 MOL     -0.007207
    173 H76        -6.1090    0.0980   -0.9380 hc        1 MOL     -0.007207
    174 N15        -6.2520    3.0230    1.6590 n         1 MOL     -0.164155
    175 C58        -6.7050    3.1280    3.0510 c3        1 MOL     -0.095983
    176 H77        -7.7530    3.4250    3.0700 h1        1 MOL      0.058529
    177 H78        -6.5920    2.1630    3.5450 h1        1 MOL      0.058529
    178 H79        -6.1070    3.8750    3.5720 h1        1 MOL      0.058529
    179 H80        -5.3150    2.6950    1.4540 hn        1 MOL      0.199093
    180 Ca1        -7.2250   -4.2530   -0.4660 Ca        1 MOL      1.763349
    181 O27        -9.8030   -4.2050   -0.0380 oh        1 MOL     -0.865449
    182 H81       -10.2390   -5.0480   -0.0350 ho        1 MOL      0.409176
    183 H82       -10.5150   -3.5630    0.0200 ho        1 MOL      0.409176
    184 O28        -8.3790   -6.3010   -1.9180 oh        1 MOL     -0.865449
    185 H83        -8.3030   -6.2630   -2.8690 ho        1 MOL      0.409176
    186 H84        -8.6790   -7.1990   -1.7380 ho        1 MOL      0.409176
    187 O29        -7.3660   -3.0910    1.8600 oh        1 MOL     -0.865449
    188 H85        -7.8100   -2.2650    2.0840 ho        1 MOL      0.409176
    189 H86        -6.9180   -3.3400    2.6690 ho        1 MOL      0.409176
    190 O30        -7.7710   -6.2920    1.1130 oh        1 MOL     -0.865449
    191 H87        -8.3650   -6.7210    1.7340 ho        1 MOL      0.409176
    192 H88        -6.8950   -6.5480    1.4220 ho        1 MOL      0.409176
    193 O31        -7.2170   -3.6360   -3.1940 oh        1 MOL     -0.865449
    194 H89        -7.6140   -2.7670   -3.1230 ho        1 MOL      0.409176
    195 H90        -7.4120   -3.9130   -4.0860 ho        1 MOL      0.409176
@<TRIPOS>BOND
     1    1    2 1   
     2    1    4 1   
     3    1    5 1   
     4    1    6 1   
     5    2    3 2   
     6    2    7 1   
     7    7    8 1   
     8    7   15 1   
     9    8    9 1   
    10    8   11 1   
    11    8   16 1   
    12    9   10 2   
    13    9   19 1   
    14   11   12 1   
    15   11   17 1   
    16   11   18 1   
    17   12   13 1   
    18   12   14 1   
    19   19   20 1   
    20   19   27 1   
    21   20   21 1   
    22   20   23 1   
    23   20   28 1   
    24   21   22 2   
    25   21   38 1   
    26   23   24 1   
    27   23   25 1   
    28   23   29 1   
    29   24   26 1   
    30   24   30 1   
    31   24   31 1   
    32   25   32 1   
    33   25   33 1   
    34   25   34 1   
    35   26   35 1   
    36   26   36 1   
    37   26   37 1   
    38   38   39 1   
    39   38   46 1   
    40   39   40 1   
    41   39   42 1   
    42   39   47 1   
    43   40   41 2   
    44   40   50 1   
    45   42   43 1   
    46   42   48 1   
    47   42   49 1   
    48   43   44 1   
    49   43   45 1   
    50   50   51 1   
    51   50   54 1   
    52   51   52 1   
    53   51   55 1   
    54   51   56 1   
    55   52   53 2   
    56   52   57 1   
    57   57   58 1   
    58   57   65 1   
    59   58   59 1   
    60   58   61 1   
    61   58   66 1   
    62   59   60 2   
    63   59   69 1   
    64   61   62 1   
    65   61   67 1   
    66   61   68 1   
    67   62   63 1   
    68   62   64 1   
    69   69   70 1   
    70   69   73 1   
    71   70   71 1   
    72   70   74 1   
    73   70   75 1   
    74   71   72 2   
    75   71   76 1   
    76   76   77 1   
    77   76   85 1   
    78   77   78 1   
    79   77   80 1   
    80   77   86 1   
    81   78   79 2   
    82   78   93 1   
    83   80   81 1   
    84   80   87 1   
    85   80   88 1   
    86   81   82 1   
    87   81   89 1   
    88   81   90 1   
    89   82   83 1   
    90   82   84 2   
    91   83   91 1   
    92   83   92 1   
    93   93   94 1   
    94   93  100 1   
    95   94   95 1   
    96   94   97 1   
    97   94  101 1   
    98   95   96 2   
    99   95  109 1   
   100   97   98 1   
   101   97   99 1   
   102   97  102 1   
   103   98  103 1   
   104   98  104 1   
   105   98  105 1   
   106   99  106 1   
   107   99  107 1   
   108   99  108 1   
   109  109  110 1   
   110  109  117 1   
   111  110  111 1   
   112  110  113 1   
   113  110  118 1   
   114  111  112 2   
   115  111  123 1   
   116  113  114 1   
   117  113  119 1   
   118  113  120 1   
   119  114  115 1   
   120  114  116 2   
   121  115  121 1   
   122  115  122 1   
   123  123  124 1   
   124  123  135 1   
   125  124  125 1   
   126  124  127 1   
   127  124  136 1   
   128  125  126 2   
   129  125  144 1   
   130  127  128 1   
   131  127  137 1   
   132  127  138 1   
   133  128  129 ar  
   134  128  130 ar  
   135  129  131 ar  
   136  129  139 1   
   137  130  132 ar  
   138  130  140 1   
   139  131  133 ar  
   140  131  141 1   
   141  132  133 ar  
   142  132  142 1   
   143  133  134 1   
   144  134  143 1   
   145  144  145 1   
   146  144  153 1   
   147  145  146 1   
   148  145  148 1   
   149  145  154 1   
   150  146  147 2   
   151  146  159 1   
   152  148  149 1   
   153  148  155 1   
   154  148  156 1   
   155  149  150 1   
   156  149  157 1   
   157  149  158 1   
   158  150  151 1   
   159  150  152 1   
   160  159  160 1   
   161  159  168 1   
   162  160  161 1   
   163  160  163 1   
   164  160  169 1   
   165  161  162 2   
   166  161  174 1   
   167  163  164 1   
   168  163  170 1   
   169  163  171 1   
   170  164  165 1   
   171  164  172 1   
   172  164  173 1   
   173  165  166 1   
   174  165  167 1   
   175  174  175 1   
   176  174  179 1   
   177  175  176 1   
   178  175  177 1   
   179  175  178 1   
   180  181  182 1   
   181  181  183 1   
   182  184  185 1   
   183  184  186 1   
   184  187  188 1   
   185  187  189 1   
   186  190  191 1   
   187  190  192 1   
   188  193  194 1   
   189  193  195 1   
@<TRIPOS>SUBSTRUCTURE
     1 MOL         1 TEMP              0 ****  ****    0 ROOT
