@<TRIPOS>MOLECULE
MOL
  192   187     1     0     0
SMALL
resp


@<TRIPOS>ATOM
      1 C1          9.1800    1.6440    1.4340 c3        1 MOL     -0.529992
      2 C2          7.9630    0.9600    0.6390 c         1 MOL      0.807119
      3 O1          6.8710    0.8950    1.0800 o         1 MOL     -0.665293
      4 H1          8.8610    2.6120    1.8220 hc        1 MOL      0.124218
      5 H2          9.4800    1.0030    2.2610 hc        1 MOL      0.124218
      6 H3         10.0230    1.7840    0.7580 hc        1 MOL      0.124218
      7 N1          8.3060    0.4910   -0.5710 n         1 MOL     -0.402223
      8 C3          7.3730   -0.1140   -1.4950 c3        1 MOL     -0.161694
      9 C4          7.0440   -1.6390   -1.2190 c         1 MOL      0.579365
     10 O2          7.1190   -2.4310   -2.1390 o         1 MOL     -0.423855
     11 C5          7.9140    0.2360   -2.9520 c3        1 MOL     -0.065356
     12 C6          9.2620   -0.3350   -3.4330 c         1 MOL      0.674664
     13 O3         10.1360   -0.6010   -2.5750 o         1 MOL     -0.654945
     14 O4          9.3070   -0.5620   -4.6490 o         1 MOL     -0.654945
     15 H4          9.2370    0.6560   -0.9350 hn        1 MOL      0.198932
     16 H5          6.4230    0.4020   -1.3370 h1        1 MOL      0.112060
     17 H6          8.0020    1.3190   -3.0340 hc        1 MOL      0.042155
     18 H7          7.1780   -0.0910   -3.6870 hc        1 MOL      0.042155
     19 N2          6.8170   -1.9640    0.0710 n         1 MOL     -0.559518
     20 C7          6.3460   -3.3010    0.3840 c3        1 MOL      0.347633
     21 C8          4.9640   -3.5320   -0.1490 c         1 MOL      0.345785
     22 O5          4.6960   -4.5560   -0.7270 o         1 MOL     -0.511679
     23 C9          6.4650   -3.5180    1.9010 c3        1 MOL     -0.088083
     24 C10         7.7470   -2.9380    2.4950 c3        1 MOL     -0.001601
     25 C11         9.0490   -3.7140    2.0730 c3        1 MOL     -0.165633
     26 C12        10.1710   -3.0930    2.9010 c3        1 MOL     -0.012120
     27 N3         10.1860   -3.6150    4.3100 n4        1 MOL     -0.349451
     28 H8          6.7370   -1.2160    0.7480 hn        1 MOL      0.259778
     29 H9          6.9240   -4.0730   -0.1360 h1        1 MOL      0.002178
     30 H10         6.3850   -4.5810    2.1160 hc        1 MOL      0.023792
     31 H11         5.6900   -2.9950    2.4580 hc        1 MOL      0.023792
     32 H12         7.5770   -2.9870    3.5670 hc        1 MOL      0.001455
     33 H13         7.9080   -1.8970    2.2060 hc        1 MOL      0.001455
     34 H14         9.1450   -3.4670    1.0220 hc        1 MOL      0.106894
     35 H15         8.8950   -4.7880    2.1590 hc        1 MOL      0.106894
     36 H16        10.0530   -2.0130    2.9400 hx        1 MOL      0.109082
     37 H17        11.0860   -3.3620    2.3780 hx        1 MOL      0.109082
     38 H18        10.2940   -4.6120    4.2300 hn        1 MOL      0.323227
     39 H19        10.9410   -3.2620    4.8650 hn        1 MOL      0.323227
     40 H20         9.3340   -3.4120    4.8110 hn        1 MOL      0.323227
     41 N4          3.9740   -2.6200    0.0020 n         1 MOL     -0.341262
     42 C13         3.8660   -1.3570    0.8630 c3        1 MOL      0.032476
     43 C14         3.8500   -0.1320   -0.1410 c         1 MOL      0.149755
     44 O6          3.8450   -0.3280   -1.4090 o         1 MOL     -0.393536
     45 C15         2.6040   -1.3970    1.8100 c3        1 MOL     -0.398725
     46 C16         1.2300   -1.6440    1.2010 c         1 MOL      0.742470
     47 O7          0.9930   -1.0510    0.1210 o         1 MOL     -0.627704
     48 O8          0.5520   -2.6100    1.5820 o         1 MOL     -0.627704
     49 H21         3.1010   -2.8270   -0.4500 hn        1 MOL      0.361754
     50 H22         4.7210   -1.1040    1.4920 h1        1 MOL      0.115898
     51 H23         2.5200   -0.4320    2.2940 hc        1 MOL      0.093844
     52 H24         2.7880   -2.1390    2.5880 hc        1 MOL      0.093844
     53 N5          3.8250    1.0030    0.4950 n         1 MOL     -0.038820
     54 C17         3.8590    2.4200   -0.0140 c3        1 MOL     -0.303048
     55 C18         2.4930    2.8420   -0.6740 c         1 MOL      0.797144
     56 O9          1.4670    2.1430   -0.6590 o         1 MOL     -0.583905
     57 H25         3.8810    0.9320    1.4950 hn        1 MOL      0.234753
     58 H26         4.6340    2.5870   -0.7560 h1        1 MOL      0.127379
     59 H27         4.1140    2.9880    0.8720 h1        1 MOL      0.127379
     60 N6          2.4690    4.0940   -1.2640 n         1 MOL     -0.604047
     61 C19         1.3020    4.8400   -1.9040 c3        1 MOL      0.205345
     62 C20         1.5940    6.3790   -1.8510 c         1 MOL      0.423273
     63 O10         2.7300    6.8420   -1.8490 o         1 MOL     -0.509422
     64 C21         1.2030    4.3930   -3.3290 c3        1 MOL     -0.125198
     65 C22         1.0990    2.8740   -3.4640 c         1 MOL      0.602454
     66 O11         0.0390    2.2160   -3.0890 o         1 MOL     -0.645966
     67 O12         1.9700    2.3530   -4.1930 o         1 MOL     -0.645966
     68 H28         3.2830    4.6990   -1.2760 hn        1 MOL      0.286905
     69 H29         0.3830    4.6020   -1.3590 h1        1 MOL      0.005477
     70 H30         2.1180    4.5770   -3.8770 hc        1 MOL      0.058849
     71 H31         0.3540    4.8440   -3.8430 hc        1 MOL      0.058849
     72 N7          0.5860    7.2380   -1.9270 n         1 MOL     -0.428950
     73 C23        -0.8270    6.9180   -2.1230 c3        1 MOL      0.042632
     74 C24        -1.4340    6.3300   -0.7950 c         1 MOL      0.656995
     75 O13        -1.0890    6.6850    0.3260 o         1 MOL     -0.533625
     76 H32         0.8730    8.1600   -1.6390 hn        1 MOL      0.321471
     77 H33        -0.9920    6.1910   -2.9150 h1        1 MOL      0.038372
     78 H34        -1.3790    7.8160   -2.3830 h1        1 MOL      0.038372
     79 N8         -2.4520    5.4500   -0.9510 n         1 MOL     -0.757826
     80 C25        -3.0300    4.7540    0.1980 c3        1 MOL      0.328648
     81 C26        -2.0250    3.7360    0.6420 c         1 MOL      0.665294
     82 O14        -1.3940    3.1690   -0.2250 o         1 MOL     -0.686253
     83 C27        -4.2780    4.0580   -0.2470 c3        1 MOL      0.305854
     84 C28        -5.4700    4.9720   -0.3380 c3        1 MOL     -0.410247
     85 O15        -4.6760    3.1340    0.6500 oh        1 MOL     -0.629685
     86 H35        -2.7610    5.1570   -1.8680 hn        1 MOL      0.339660
     87 H36        -3.1070    5.4370    1.0480 h1        1 MOL      0.012271
     88 H37        -3.9570    3.4900   -1.1250 h1        1 MOL      0.026925
     89 H38        -5.3570    2.6060    0.2270 ho        1 MOL      0.397173
     90 H39        -5.1640    5.9150   -0.7770 hc        1 MOL      0.100990
     91 H40        -6.2490    4.5800   -1.0010 hc        1 MOL      0.100990
     92 H41        -5.7620    5.0710    0.7080 hc        1 MOL      0.100990
     93 N9         -1.9820    3.5500    1.9420 n         1 MOL     -0.715105
     94 C29        -1.2130    2.6170    2.7990 c3        1 MOL      0.094339
     95 C30        -1.6920    1.1900    2.4720 c         1 MOL      0.675114
     96 O16        -1.7730    0.7290    1.3480 o         1 MOL     -0.543336
     97 C31         0.2870    2.8000    2.8150 c3        1 MOL      0.551220
     98 C32         0.8610    4.2610    2.6440 c3        1 MOL     -0.056020
     99 C33         0.8390    2.0790    4.0280 c3        1 MOL     -0.372771
    100 C34         0.3980    5.1920    3.7380 c3        1 MOL     -0.074775
    101 H42        -2.6810    4.0790    2.4620 hn        1 MOL      0.327238
    102 H43        -1.4870    2.8100    3.8310 h1        1 MOL      0.049286
    103 H44         0.6350    2.2750    1.9200 hc        1 MOL     -0.251037
    104 H45         0.4420    4.6650    1.7250 hc        1 MOL      0.030544
    105 H46         1.9310    4.2100    2.4520 hc        1 MOL      0.030544
    106 H47         0.6700    1.0000    4.0570 hc        1 MOL      0.060567
    107 H48         1.9090    2.2620    4.1400 hc        1 MOL      0.060567
    108 H49         0.2790    2.4220    4.9010 hc        1 MOL      0.060567
    109 H50         0.3240    6.2000    3.3160 hc        1 MOL      0.008653
    110 H51        -0.5320    4.8480    4.1910 hc        1 MOL      0.008653
    111 H52         1.0950    5.2120    4.5820 hc        1 MOL      0.008653
    112 N10        -1.8670    0.4480    3.5710 n         1 MOL     -0.684205
    113 C35        -1.9470   -1.0240    3.5850 c3        1 MOL      0.434413
    114 C36        -3.4570   -1.5290    3.5800 c         1 MOL      0.386879
    115 O17        -3.7330   -2.4240    4.3570 o         1 MOL     -0.521838
    116 C37        -1.0920   -1.6520    4.6590 c3        1 MOL      0.417396
    117 C38        -1.2460   -0.9100    5.9940 c3        1 MOL     -0.258373
    118 O18         0.2120   -1.6840    4.2060 oh        1 MOL     -0.620923
    119 H53        -1.9220    0.9420    4.4470 hn        1 MOL      0.256748
    120 H54        -1.5700   -1.3300    2.6150 h1        1 MOL     -0.130798
    121 H55        -1.4890   -2.6490    4.7970 h1        1 MOL     -0.022137
    122 H56         0.2150   -2.0940    3.3320 ho        1 MOL      0.317712
    123 H57        -0.7430    0.0360    6.2010 hc        1 MOL      0.062140
    124 H58        -2.2970   -0.6890    6.2290 hc        1 MOL      0.062140
    125 H59        -1.0000   -1.4660    6.8990 hc        1 MOL      0.062140
    126 N11        -4.3530   -0.9850    2.7770 n         1 MOL     -0.401677
    127 C39        -5.6560   -1.5690    2.4160 c3        1 MOL      0.051042
    128 C40        -5.7160   -1.5480    0.9060 c         1 MOL      0.356190
    129 O19        -5.0230   -0.7840    0.2500 o         1 MOL     -0.410775
    130 C41        -6.9120   -0.9890    3.1420 c3        1 MOL      0.522067
    131 C42        -6.9850   -1.4190    4.5730 c3        1 MOL     -0.281413
    132 O20        -6.8410    0.3880    3.1770 oh        1 MOL     -0.614778
    133 H60        -4.0200   -0.2900    2.1320 hn        1 MOL      0.222927
    134 H61        -5.6770   -2.6350    2.6620 h1        1 MOL      0.088686
    135 H62        -7.7820   -1.3060    2.5700 h1        1 MOL     -0.056658
    136 H63        -6.1130    0.5480    3.7820 ho        1 MOL      0.356840
    137 H64        -7.9110   -1.0960    5.0690 hc        1 MOL      0.058540
    138 H65        -6.7690   -2.4840    4.5610 hc        1 MOL      0.058540
    139 H66        -6.0820   -0.9910    5.0060 hc        1 MOL      0.058540
    140 N12        -6.5520   -2.4580    0.3540 n         1 MOL     -0.391338
    141 C43        -6.6990   -2.6960   -1.1230 c3        1 MOL      0.031878
    142 C44        -5.3950   -2.7750   -1.8850 c         1 MOL      0.584546
    143 O21        -5.4280   -2.2280   -2.9730 o         1 MOL     -0.502774
    144 C45        -7.6720   -1.6360   -1.6920 c3        1 MOL     -0.219986
    145 C46        -9.0390   -1.6000   -0.8780 c3        1 MOL     -0.016964
    146 C47       -10.1690   -0.7920   -1.5540 c3        1 MOL     -0.065329
    147 C48       -11.3420   -0.8480   -0.6170 c3        1 MOL      0.092452
    148 N13       -12.6470   -0.3500   -1.1760 n4        1 MOL     -0.143916
    149 H67        -7.0700   -3.0070    1.0230 hn        1 MOL      0.215735
    150 H68        -7.2260   -3.6500   -1.1980 h1        1 MOL      0.095356
    151 H69        -7.9790   -1.8770   -2.7070 hc        1 MOL      0.104204
    152 H70        -7.1960   -0.6600   -1.7090 hc        1 MOL      0.104204
    153 H71        -8.9190   -1.1430    0.1020 hc        1 MOL      0.043185
    154 H72        -9.3120   -2.6630   -0.8690 hc        1 MOL      0.043185
    155 H73       -10.4280   -1.1650   -2.5470 hc        1 MOL      0.048625
    156 H74        -9.7740    0.2320   -1.6110 hc        1 MOL      0.048625
    157 H75       -11.1160   -0.3460    0.3270 hx        1 MOL      0.040165
    158 H76       -11.5510   -1.8690   -0.3330 hx        1 MOL      0.040165
    159 H77       -12.5250    0.5800   -1.5570 hn        1 MOL      0.179777
    160 H78       -12.9330   -0.8960   -1.9810 hn        1 MOL      0.179777
    161 H79       -13.4100   -0.4060   -0.5080 hn        1 MOL      0.179777
    162 N14        -4.3670   -3.4410   -1.3280 n         1 MOL     -0.613948
    163 C49        -3.0060   -3.3350   -1.8690 c3        1 MOL      0.228873
    164 C50        -1.9370   -2.8980   -0.8350 c         1 MOL      0.426504
    165 O22        -1.3490   -1.8960   -1.0660 o         1 MOL     -0.582668
    166 C51        -2.6500   -4.6010   -2.6390 c3        1 MOL     -0.049795
    167 C52        -3.5580   -4.7470   -3.9140 c3        1 MOL     -0.215385
    168 C53        -3.3390   -6.0780   -4.6210 c         1 MOL      0.685555
    169 O23        -2.3930   -6.1360   -5.4430 o         1 MOL     -0.651313
    170 O24        -4.0560   -7.0240   -4.2520 o         1 MOL     -0.651313
    171 H80        -4.6330   -4.2330   -0.7550 hn        1 MOL      0.313170
    172 H81        -2.9900   -2.6260   -2.6880 h1        1 MOL      0.049902
    173 H82        -2.7780   -5.5090   -2.0530 hc        1 MOL      0.060437
    174 H83        -1.5840   -4.5630   -2.8930 hc        1 MOL      0.060437
    175 H84        -3.4320   -3.9170   -4.6140 hc        1 MOL      0.040666
    176 H85        -4.5920   -4.7520   -3.5870 hc        1 MOL      0.040666
    177 N15        -1.7350   -3.5660    0.3110 n         1 MOL     -0.264196
    178 C54        -1.9200   -4.9220    0.7110 c3        1 MOL     -0.080398
    179 H86        -1.0420   -5.2610    1.2610 h1        1 MOL      0.046488
    180 H87        -2.8000   -4.9960    1.3510 h1        1 MOL      0.046488
    181 H88        -2.0580   -5.5460   -0.1720 h1        1 MOL      0.046488
    182 H89        -1.1170   -3.0850    0.9540 hn        1 MOL      0.300708
    183 Ca1        -0.6630    0.6290   -1.0980 Ca        1 MOL      1.749772
    184 O25        -2.0240   -0.2850   -3.4790 oh        1 MOL     -0.832000
    185 H90        -2.2350    0.0570   -4.3450 ho        1 MOL      0.400405
    186 H91        -1.6890   -1.1630   -3.6460 ho        1 MOL      0.400405
    187 O26        -3.3190    0.7050   -1.3230 oh        1 MOL     -0.832000
    188 H92        -3.7610    0.6000   -2.1670 ho        1 MOL      0.400405
    189 H93        -3.8580    0.2250   -0.7050 ho        1 MOL      0.400405
    190 O27         1.1270   -0.1210   -2.9800 oh        1 MOL     -0.832000
    191 H94         1.1710    0.6660   -3.5190 ho        1 MOL      0.400405
    192 H95         1.7280   -0.7340   -3.4110 ho        1 MOL      0.400405
@<TRIPOS>BOND
     1    1    2 1   
     2    1    4 1   
     3    1    5 1   
     4    1    6 1   
     5    2    3 2   
     6    2    7 1   
     7    7    8 1   
     8    7   15 1   
     9    8    9 1   
    10    8   11 1   
    11    8   16 1   
    12    9   10 2   
    13    9   19 1   
    14   11   12 1   
    15   11   17 1   
    16   11   18 1   
    17   12   13 1   
    18   12   14 1   
    19   19   20 1   
    20   19   28 1   
    21   20   21 1   
    22   20   23 1   
    23   20   29 1   
    24   21   22 2   
    25   21   41 1   
    26   23   24 1   
    27   23   30 1   
    28   23   31 1   
    29   24   25 1   
    30   24   32 1   
    31   24   33 1   
    32   25   26 1   
    33   25   34 1   
    34   25   35 1   
    35   26   27 1   
    36   26   36 1   
    37   26   37 1   
    38   27   38 1   
    39   27   39 1   
    40   27   40 1   
    41   41   42 1   
    42   41   49 1   
    43   42   43 1   
    44   42   45 1   
    45   42   50 1   
    46   43   44 2   
    47   43   53 1   
    48   45   46 1   
    49   45   51 1   
    50   45   52 1   
    51   46   47 1   
    52   46   48 1   
    53   53   54 1   
    54   53   57 1   
    55   54   55 1   
    56   54   58 1   
    57   54   59 1   
    58   55   56 2   
    59   55   60 1   
    60   60   61 1   
    61   60   68 1   
    62   61   62 1   
    63   61   64 1   
    64   61   69 1   
    65   62   63 2   
    66   62   72 1   
    67   64   65 1   
    68   64   70 1   
    69   64   71 1   
    70   65   66 1   
    71   65   67 1   
    72   72   73 1   
    73   72   76 1   
    74   73   74 1   
    75   73   77 1   
    76   73   78 1   
    77   74   75 2   
    78   74   79 1   
    79   79   80 1   
    80   79   86 1   
    81   80   81 1   
    82   80   83 1   
    83   80   87 1   
    84   81   82 2   
    85   81   93 1   
    86   83   84 1   
    87   83   85 1   
    88   83   88 1   
    89   84   90 1   
    90   84   91 1   
    91   84   92 1   
    92   85   89 1   
    93   93   94 1   
    94   93  101 1   
    95   94   95 1   
    96   94   97 1   
    97   94  102 1   
    98   95   96 2   
    99   95  112 1   
   100   97   98 1   
   101   97   99 1   
   102   97  103 1   
   103   98  100 1   
   104   98  104 1   
   105   98  105 1   
   106   99  106 1   
   107   99  107 1   
   108   99  108 1   
   109  100  109 1   
   110  100  110 1   
   111  100  111 1   
   112  112  113 1   
   113  112  119 1   
   114  113  114 1   
   115  113  116 1   
   116  113  120 1   
   117  114  115 2   
   118  114  126 1   
   119  116  117 1   
   120  116  118 1   
   121  116  121 1   
   122  117  123 1   
   123  117  124 1   
   124  117  125 1   
   125  118  122 1   
   126  126  127 1   
   127  126  133 1   
   128  127  128 1   
   129  127  130 1   
   130  127  134 1   
   131  128  129 2   
   132  128  140 1   
   133  130  131 1   
   134  130  132 1   
   135  130  135 1   
   136  131  137 1   
   137  131  138 1   
   138  131  139 1   
   139  132  136 1   
   140  140  141 1   
   141  140  149 1   
   142  141  142 1   
   143  141  144 1   
   144  141  150 1   
   145  142  143 2   
   146  142  162 1   
   147  144  145 1   
   148  144  151 1   
   149  144  152 1   
   150  145  146 1   
   151  145  153 1   
   152  145  154 1   
   153  146  147 1   
   154  146  155 1   
   155  146  156 1   
   156  147  148 1   
   157  147  157 1   
   158  147  158 1   
   159  148  159 1   
   160  148  160 1   
   161  148  161 1   
   162  162  163 1   
   163  162  171 1   
   164  163  164 1   
   165  163  166 1   
   166  163  172 1   
   167  164  165 2   
   168  164  177 1   
   169  166  167 1   
   170  166  173 1   
   171  166  174 1   
   172  167  168 1   
   173  167  175 1   
   174  167  176 1   
   175  168  169 1   
   176  168  170 1   
   177  177  178 1   
   178  177  182 1   
   179  178  179 1   
   180  178  180 1   
   181  178  181 1   
   182  184  185 1   
   183  184  186 1   
   184  187  188 1   
   185  187  189 1   
   186  190  191 1   
   187  190  192 1   
@<TRIPOS>SUBSTRUCTURE
     1 MOL         1 TEMP              0 ****  ****    0 ROOT
