@<TRIPOS>MOLECULE
MOL
  185   180     1     0     0
SMALL
resp


@<TRIPOS>ATOM
      1 C1          6.0930   -0.3110    3.4600 c3        1 MOL     -0.391481
      2 C2          6.1280    0.6890    2.2900 c         1 MOL      0.744261
      3 O1          5.1980    0.7330    1.4990 o         1 MOL     -0.487927
      4 H1          6.8550   -1.0750    3.3080 hc        1 MOL      0.087339
      5 H2          6.2900    0.2150    4.3950 hc        1 MOL      0.087339
      6 H3          5.1110   -0.7810    3.5090 hc        1 MOL      0.087339
      7 N1          7.2210    1.3740    2.1800 n         1 MOL     -0.598421
      8 C3          7.5900    2.1010    1.0060 c3        1 MOL     -0.002602
      9 C4          7.7600    1.2430   -0.2990 c         1 MOL      0.509885
     10 O2          7.7080    1.8230   -1.3930 o         1 MOL     -0.494727
     11 C5          6.7740    3.4710    0.8410 c3        1 MOL     -0.207426
     12 C6          6.7190    4.3200    2.1280 c         1 MOL      0.726138
     13 O3          7.6260    4.3070    2.9890 o         1 MOL     -0.638515
     14 O4          5.8060    5.1670    2.2060 o         1 MOL     -0.638515
     15 H4          7.8380    1.3740    2.9800 hn        1 MOL      0.320712
     16 H5          8.6080    2.4380    1.2300 h1        1 MOL      0.073163
     17 H6          5.7630    3.2520    0.4730 hc        1 MOL      0.083433
     18 H7          7.2500    4.0360    0.0420 hc        1 MOL      0.083433
     19 N2          7.8910   -0.1040   -0.1710 n         1 MOL     -0.502062
     20 C7          7.8830   -1.0360   -1.3520 c3        1 MOL      0.115165
     21 C8          6.4770   -1.2910   -1.9610 c         1 MOL      0.515128
     22 O5          6.4210   -1.8310   -3.0620 o         1 MOL     -0.564235
     23 C9          8.5800   -2.4340   -0.9610 c3        1 MOL     -0.309290
     24 C10        10.0940   -2.2450   -0.6360 c3        1 MOL     -0.049925
     25 C11        10.7850   -3.5880   -0.2650 c3        1 MOL      0.143415
     26 C12        12.3170   -3.5790   -0.2020 c3        1 MOL     -0.152287
     27 N3         12.8410   -2.7720    0.8970 n4        1 MOL     -0.299977
     28 H8          7.9220   -0.4250    0.7810 hn        1 MOL      0.296452
     29 H9          8.4620   -0.5810   -2.1550 h1        1 MOL      0.085499
     30 H10         8.5230   -3.0280   -1.8670 hc        1 MOL      0.116673
     31 H11         8.0190   -2.8700   -0.1270 hc        1 MOL      0.116673
     32 H12        10.2730   -1.4090    0.0320 hc        1 MOL      0.043723
     33 H13        10.5710   -1.9540   -1.5790 hc        1 MOL      0.043723
     34 H14        10.5310   -4.3860   -0.9560 hc        1 MOL     -0.000019
     35 H15        10.3800   -3.7870    0.7270 hc        1 MOL     -0.000019
     36 H16        12.6090   -3.2380   -1.2030 hx        1 MOL      0.129523
     37 H17        12.6910   -4.5880   -0.0320 hx        1 MOL      0.129523
     38 H18        13.8550   -2.7380    0.8190 hn        1 MOL      0.264146
     39 H19        12.6080   -1.7970    0.8050 hn        1 MOL      0.264146
     40 H20        12.5470   -3.2270    1.7430 hn        1 MOL      0.264146
     41 N4          5.4360   -1.0140   -1.1830 n         1 MOL     -0.272254
     42 C13         4.0620   -1.2070   -1.7030 c3        1 MOL      0.039050
     43 C14         3.7810   -0.2270   -2.8650 c         1 MOL      0.554163
     44 O6          3.9890    0.9480   -2.7320 o         1 MOL     -0.441718
     45 C15         3.1120   -1.0860   -0.4540 c3        1 MOL     -0.292990
     46 C16         1.6780   -1.5290   -0.7760 c         1 MOL      0.846151
     47 O7          1.0750   -0.9780   -1.7100 o         1 MOL     -0.738910
     48 O8          1.1240   -2.4020   -0.0560 o         1 MOL     -0.738910
     49 H21         5.5240   -0.4740   -0.3330 hn        1 MOL      0.165382
     50 H22         3.9040   -2.1990   -2.1260 h1        1 MOL      0.032118
     51 H23         2.9510   -0.0810   -0.0780 hc        1 MOL      0.064294
     52 H24         3.4180   -1.7220    0.3800 hc        1 MOL      0.064294
     53 N5          3.2680   -0.7070   -3.9960 n         1 MOL     -0.309407
     54 C17         2.7430    0.1080   -5.1260 c3        1 MOL     -0.207834
     55 C18         1.5790    1.0640   -4.8300 c         1 MOL      0.488886
     56 O9          1.5230    2.1530   -5.4170 o         1 MOL     -0.524553
     57 H25         3.4140   -1.7020   -4.1530 hn        1 MOL      0.241794
     58 H26         2.2480   -0.5430   -5.8500 h1        1 MOL      0.127897
     59 H27         3.5790    0.6430   -5.5690 h1        1 MOL      0.127897
     60 N6          0.7280    0.8240   -3.8370 n         1 MOL     -0.352717
     61 C19        -0.1930    1.8750   -3.3090 c3        1 MOL      0.021812
     62 C20         0.5750    2.8840   -2.3590 c         1 MOL      0.465926
     63 O10         0.0270    3.9300   -1.9950 o         1 MOL     -0.531170
     64 C21        -1.3580    1.1880   -2.5640 c3        1 MOL     -0.416121
     65 C22        -2.1590    0.1210   -3.3360 c         1 MOL      0.720081
     66 N7         -2.7200    0.4570   -4.4900 n         1 MOL     -0.856871
     67 O11        -2.2350   -1.0700   -3.0580 o         1 MOL     -0.582971
     68 H28         0.7390   -0.1360   -3.4970 hn        1 MOL      0.258690
     69 H29        -0.6200    2.5180   -4.0740 h1        1 MOL      0.087623
     70 H30        -1.9250    1.9930   -2.0890 hc        1 MOL      0.207730
     71 H31        -1.0000    0.5400   -1.7600 hc        1 MOL      0.207730
     72 H32        -2.7060    1.3900   -4.8700 hn        1 MOL      0.399862
     73 H33        -3.1240   -0.2840   -5.0390 hn        1 MOL      0.399862
     74 N8          1.6930    2.4410   -1.8850 n         1 MOL     -0.045464
     75 C23         2.4600    3.0620   -0.8540 c3        1 MOL     -0.197903
     76 C24         1.9850    2.7300    0.6050 c         1 MOL      0.477766
     77 O12         2.2080    3.5270    1.5470 o         1 MOL     -0.482058
     78 H34         2.1140    1.6180   -2.3020 hn        1 MOL      0.123906
     79 H35         2.4860    4.1430   -0.9810 h1        1 MOL      0.124465
     80 H36         3.4910    2.7040   -0.9060 h1        1 MOL      0.124465
     81 N9          1.2900    1.6250    0.7350 n         1 MOL     -0.147236
     82 C25         0.7010    1.0590    1.9290 c3        1 MOL      0.039561
     83 C26        -0.7190    0.6130    1.6350 c         1 MOL      0.253801
     84 O13        -0.9530   -0.3320    0.8200 o         1 MOL     -0.462020
     85 C27         1.4560   -0.1020    2.5520 c3        1 MOL     -0.130231
     86 C28         1.0310   -0.6710    3.9490 ca        1 MOL      0.086371
     87 C29         0.0320   -0.1010    4.8380 ca        1 MOL     -0.182601
     88 C30         1.6190   -1.8520    4.3760 ca        1 MOL     -0.182601
     89 C31        -0.1900   -0.6480    6.1300 ca        1 MOL     -0.243824
     90 C32         1.2730   -2.4920    5.6150 ca        1 MOL     -0.243824
     91 C33         0.3950   -1.8770    6.4860 ca        1 MOL      0.351130
     92 O14        -0.0210   -2.5500    7.6460 oh        1 MOL     -0.545101
     93 H37         1.1900    0.9390    0.0030 hn        1 MOL     -0.084976
     94 H38         0.6560    1.8920    2.6370 h1        1 MOL      0.032100
     95 H39         2.4590    0.3040    2.6900 hc        1 MOL      0.107897
     96 H40         1.4550   -0.9500    1.8580 hc        1 MOL      0.107897
     97 H41        -0.4600    0.8280    4.6080 ha        1 MOL      0.134011
     98 H42         2.4520   -2.2510    3.8080 ha        1 MOL      0.134011
     99 H43        -0.9930   -0.2640    6.7520 ha        1 MOL      0.138206
    100 H44         1.7940   -3.3880    5.9190 ha        1 MOL      0.138206
    101 H45         0.4280   -3.3430    7.9290 ho        1 MOL      0.391646
    102 N10        -1.6590    1.1370    2.3230 n         1 MOL     -0.023965
    103 C34        -3.0820    0.9460    1.9750 c3        1 MOL      0.048876
    104 C35        -3.3920    1.9590    0.8220 c         1 MOL      0.263098
    105 O15        -3.9130    1.4410   -0.1500 o         1 MOL     -0.581236
    106 C36        -3.9740    1.0950    3.2620 c3        1 MOL      0.063320
    107 C37        -3.8280   -0.1540    4.1460 c3        1 MOL      0.027534
    108 C38        -5.4610    1.3520    2.8640 c3        1 MOL     -0.572093
    109 C39        -3.9110   -1.4810    3.5150 c3        1 MOL     -0.102732
    110 H46        -1.4350    1.7280    3.1020 hn        1 MOL      0.172328
    111 H47        -3.2080   -0.0470    1.5470 h1        1 MOL      0.029529
    112 H48        -3.6860    1.9950    3.8150 hc        1 MOL     -0.003209
    113 H49        -4.5330   -0.1060    4.9680 hc        1 MOL      0.013905
    114 H50        -2.8100   -0.1760    4.5590 hc        1 MOL      0.013905
    115 H51        -5.9840    1.5690    3.7970 hc        1 MOL      0.152589
    116 H52        -5.5400    2.2580    2.2660 hc        1 MOL      0.152589
    117 H53        -5.8060    0.4050    2.4540 hc        1 MOL      0.152589
    118 H54        -3.8140   -2.2500    4.2810 hc        1 MOL      0.041053
    119 H55        -4.9460   -1.6610    3.2300 hc        1 MOL      0.041053
    120 H56        -3.1710   -1.7480    2.7700 hc        1 MOL      0.041053
    121 N11        -2.8840    3.2230    0.8500 n         1 MOL     -0.277881
    122 C40        -3.1320    4.3020   -0.1960 c3        1 MOL      0.270891
    123 C41        -4.5610    4.2190   -0.6560 c         1 MOL      0.186724
    124 O16        -4.7560    4.3350   -1.8710 o         1 MOL     -0.447063
    125 C42        -2.9230    5.7260    0.3840 c3        1 MOL      0.174866
    126 O17        -1.6550    5.8170    1.0520 oh        1 MOL     -0.590953
    127 H57        -2.2990    3.5530    1.6030 hn        1 MOL      0.206692
    128 H58        -2.5720    4.1110   -1.1080 h1        1 MOL      0.034177
    129 H59        -3.6440    5.9690    1.1630 h1        1 MOL      0.010183
    130 H60        -3.0190    6.4280   -0.4560 h1        1 MOL      0.010183
    131 H61        -1.6270    6.6770    1.4880 ho        1 MOL      0.412323
    132 N12        -5.5270    4.1350    0.2170 n         1 MOL     -0.240312
    133 C43        -6.9730    4.0960   -0.0370 c3        1 MOL      0.008801
    134 C44        -7.4360    2.7750   -0.7080 c         1 MOL      0.616290
    135 O18        -8.4740    2.7270   -1.3470 o         1 MOL     -0.531256
    136 C45        -7.3900    5.3470   -0.6790 c3        1 MOL     -0.350202
    137 H62        -5.1790    4.0980    1.1590 hn        1 MOL      0.248956
    138 H63        -7.4620    4.1980    0.9310 h1        1 MOL      0.088154
    139 H64        -8.4630    5.5230   -0.6140 hc        1 MOL      0.116851
    140 H65        -6.9650    6.1420   -0.0620 hc        1 MOL      0.116851
    141 H66        -7.1090    5.3690   -1.7290 hc        1 MOL      0.116851
    142 N13        -6.7070    1.6580   -0.6370 n         1 MOL     -0.811042
    143 C46        -7.0630    0.3320   -1.3030 c3        1 MOL      0.663851
    144 C47        -6.7780   -1.0200   -0.4570 c         1 MOL      0.083960
    145 O19        -6.1540   -1.0160    0.5680 o         1 MOL     -0.290057
    146 C48        -6.3080    0.1300   -2.6540 c3        1 MOL     -0.517869
    147 H67        -5.7250    1.7800   -0.4380 hn        1 MOL      0.485562
    148 H68        -8.1220    0.4410   -1.5400 h1        1 MOL     -0.044739
    149 H69        -5.2350    0.1760   -2.4810 hc        1 MOL      0.134897
    150 H70        -6.5070   -0.7600   -3.2470 hc        1 MOL      0.134897
    151 H71        -6.5590    1.0270   -3.2200 hc        1 MOL      0.134897
    152 N14        -7.3520   -2.1640   -1.0070 n         1 MOL     -0.234123
    153 C49        -7.2000   -3.5020   -0.4700 c3        1 MOL     -0.337890
    154 C50        -7.7950   -3.6770    0.9520 c         1 MOL      0.530018
    155 O20        -7.4110   -4.6010    1.6500 o         1 MOL     -0.491626
    156 C51        -5.8170   -4.1570   -0.6360 c3        1 MOL      0.119771
    157 C52        -5.1560   -4.2780   -1.9800 c3        1 MOL     -0.007216
    158 C53        -3.8310   -5.0470   -1.8410 c         1 MOL      0.598019
    159 O21        -3.9200   -6.2420   -1.6040 o         1 MOL     -0.663406
    160 O22        -2.7830   -4.3630   -1.9970 o         1 MOL     -0.663406
    161 H72        -7.9810   -2.1170   -1.7970 hn        1 MOL      0.254933
    162 H73        -7.9390   -3.9940   -1.1000 h1        1 MOL      0.142286
    163 H74        -5.7160   -5.1550   -0.2120 hc        1 MOL      0.027083
    164 H75        -5.1270   -3.6930    0.0670 hc        1 MOL      0.027083
    165 H76        -5.0700   -3.2890   -2.4300 hc        1 MOL     -0.019573
    166 H77        -5.7970   -4.7760   -2.7070 hc        1 MOL     -0.019573
    167 N15        -8.7710   -2.8150    1.3190 n         1 MOL     -0.311405
    168 C54        -9.4260   -2.7550    2.6600 c3        1 MOL     -0.206546
    169 H78       -10.0690   -1.8770    2.7100 h1        1 MOL      0.108914
    170 H79       -10.0250   -3.6530    2.8130 h1        1 MOL      0.108914
    171 H80        -8.6620   -2.6910    3.4350 h1        1 MOL      0.108914
    172 H81        -8.9270   -2.0060    0.7330 hn        1 MOL      0.232115
    173 Ca1        -1.2020   -2.4900   -1.0540 Ca        1 MOL      1.652410
    174 O23        -0.3720   -5.1690   -0.9230 oh        1 MOL     -0.832032
    175 H82        -1.2980   -5.3630   -1.0710 ho        1 MOL      0.402600
    176 H83         0.0310   -6.0330   -0.8020 ho        1 MOL      0.402600
    177 O24         0.0700   -3.1340   -3.4200 oh        1 MOL     -0.832032
    178 H84         0.9870   -3.3510   -3.2460 ho        1 MOL      0.402600
    179 H85         0.0650   -2.8170   -4.3240 ho        1 MOL      0.402600
    180 O25        -3.6210   -1.3160   -0.6190 oh        1 MOL     -0.832032
    181 H86        -3.5710   -0.4190   -0.9380 ho        1 MOL      0.402600
    182 H87        -4.3820   -1.3250   -0.0360 ho        1 MOL      0.402600
    183 O26        -2.6120   -3.6190    0.9140 oh        1 MOL     -0.832032
    184 H88        -3.0000   -3.5000    1.7790 ho        1 MOL      0.402600
    185 H89        -2.3920   -4.5460    0.8730 ho        1 MOL      0.402600
@<TRIPOS>BOND
     1    1    2 1   
     2    1    4 1   
     3    1    5 1   
     4    1    6 1   
     5    2    3 2   
     6    2    7 1   
     7    7    8 1   
     8    7   15 1   
     9    8    9 1   
    10    8   11 1   
    11    8   16 1   
    12    9   10 2   
    13    9   19 1   
    14   11   12 1   
    15   11   17 1   
    16   11   18 1   
    17   12   13 1   
    18   12   14 1   
    19   19   20 1   
    20   19   28 1   
    21   20   21 1   
    22   20   23 1   
    23   20   29 1   
    24   21   22 2   
    25   21   41 1   
    26   23   24 1   
    27   23   30 1   
    28   23   31 1   
    29   24   25 1   
    30   24   32 1   
    31   24   33 1   
    32   25   26 1   
    33   25   34 1   
    34   25   35 1   
    35   26   27 1   
    36   26   36 1   
    37   26   37 1   
    38   27   38 1   
    39   27   39 1   
    40   27   40 1   
    41   41   42 1   
    42   41   49 1   
    43   42   43 1   
    44   42   45 1   
    45   42   50 1   
    46   43   44 2   
    47   43   53 1   
    48   45   46 1   
    49   45   51 1   
    50   45   52 1   
    51   46   47 1   
    52   46   48 1   
    53   53   54 1   
    54   53   57 1   
    55   54   55 1   
    56   54   58 1   
    57   54   59 1   
    58   55   56 2   
    59   55   60 1   
    60   60   61 1   
    61   60   68 1   
    62   61   62 1   
    63   61   64 1   
    64   61   69 1   
    65   62   63 2   
    66   62   74 1   
    67   64   65 1   
    68   64   70 1   
    69   64   71 1   
    70   65   66 1   
    71   65   67 2   
    72   66   72 1   
    73   66   73 1   
    74   74   75 1   
    75   74   78 1   
    76   75   76 1   
    77   75   79 1   
    78   75   80 1   
    79   76   77 2   
    80   76   81 1   
    81   81   82 1   
    82   81   93 1   
    83   82   83 1   
    84   82   85 1   
    85   82   94 1   
    86   83   84 2   
    87   83  102 1   
    88   85   86 1   
    89   85   95 1   
    90   85   96 1   
    91   86   87 ar  
    92   86   88 ar  
    93   87   89 ar  
    94   87   97 1   
    95   88   90 ar  
    96   88   98 1   
    97   89   91 ar  
    98   89   99 1   
    99   90   91 ar  
   100   90  100 1   
   101   91   92 1   
   102   92  101 1   
   103  102  103 1   
   104  102  110 1   
   105  103  104 1   
   106  103  106 1   
   107  103  111 1   
   108  104  105 2   
   109  104  121 1   
   110  106  107 1   
   111  106  108 1   
   112  106  112 1   
   113  107  109 1   
   114  107  113 1   
   115  107  114 1   
   116  108  115 1   
   117  108  116 1   
   118  108  117 1   
   119  109  118 1   
   120  109  119 1   
   121  109  120 1   
   122  121  122 1   
   123  121  127 1   
   124  122  123 1   
   125  122  125 1   
   126  122  128 1   
   127  123  124 2   
   128  123  132 1   
   129  125  126 1   
   130  125  129 1   
   131  125  130 1   
   132  126  131 1   
   133  132  133 1   
   134  132  137 1   
   135  133  134 1   
   136  133  136 1   
   137  133  138 1   
   138  134  135 2   
   139  134  142 1   
   140  136  139 1   
   141  136  140 1   
   142  136  141 1   
   143  142  143 1   
   144  142  147 1   
   145  143  144 1   
   146  143  146 1   
   147  143  148 1   
   148  144  145 2   
   149  144  152 1   
   150  146  149 1   
   151  146  150 1   
   152  146  151 1   
   153  152  153 1   
   154  152  161 1   
   155  153  154 1   
   156  153  156 1   
   157  153  162 1   
   158  154  155 2   
   159  154  167 1   
   160  156  157 1   
   161  156  163 1   
   162  156  164 1   
   163  157  158 1   
   164  157  165 1   
   165  157  166 1   
   166  158  159 1   
   167  158  160 1   
   168  167  168 1   
   169  167  172 1   
   170  168  169 1   
   171  168  170 1   
   172  168  171 1   
   173  174  175 1   
   174  174  176 1   
   175  177  178 1   
   176  177  179 1   
   177  180  181 1   
   178  180  182 1   
   179  183  184 1   
   180  183  185 1   
@<TRIPOS>SUBSTRUCTURE
     1 MOL         1 TEMP              0 ****  ****    0 ROOT
