@<TRIPOS>MOLECULE
MOL
  186   183     1     0     0
SMALL
resp


@<TRIPOS>ATOM
      1 C1        -13.2190    5.6730    2.6740 c3        1 MOL     -0.534035
      2 C2        -12.9600    4.2190    2.1360 c         1 MOL      0.571712
      3 O1        -13.9280    3.4740    2.0720 o         1 MOL     -0.548427
      4 H1        -12.3570    6.0050    3.2530 hc        1 MOL      0.152437
      5 H2        -13.3740    6.3500    1.8340 hc        1 MOL      0.152437
      6 H3        -14.1040    5.6730    3.3090 hc        1 MOL      0.152437
      7 N1        -11.7110    3.9230    1.7450 n         1 MOL     -0.023052
      8 C3        -11.3460    2.9590    0.7120 c3        1 MOL     -0.840858
      9 C4        -10.1180    2.1710    1.1290 c         1 MOL      0.521424
     10 O2         -9.0990    2.6730    1.6570 o         1 MOL     -0.653007
     11 C5        -11.2550    3.6880   -0.6700 c3        1 MOL      0.022096
     12 C6        -10.5400    5.0940   -0.6760 c         1 MOL      0.641051
     13 O3         -9.4840    5.2330    0.0160 o         1 MOL     -0.682692
     14 O4        -10.9900    6.0260   -1.3740 o         1 MOL     -0.682692
     15 H4        -10.9860    4.5850    1.9650 hn        1 MOL      0.153771
     16 H5        -12.2260    2.3120    0.6940 h1        1 MOL      0.237746
     17 H6        -12.2570    3.9490   -0.9970 hc        1 MOL      0.116587
     18 H7        -10.8050    3.0140   -1.3950 hc        1 MOL      0.116587
     19 N2        -10.1170    0.8300    0.8500 n         1 MOL      0.070683
     20 C7         -9.1650   -0.1920    1.2320 c3        1 MOL     -0.630743
     21 C8         -8.0240   -0.2820    0.2280 c         1 MOL      0.744905
     22 O5         -7.2060   -1.2010    0.2630 o         1 MOL     -0.529392
     23 C9         -9.9000   -1.5430    1.4550 c3        1 MOL      0.140092
     24 C10       -10.8450   -1.5100    2.6570 c3        1 MOL     -0.011614
     25 C11       -11.4230   -2.8300    3.1050 c3        1 MOL     -0.023041
     26 C12       -12.2490   -2.7390    4.3490 c3        1 MOL      0.137781
     27 N3        -12.9280   -4.0060    4.7660 n4        1 MOL     -0.417876
     28 H8        -10.9200    0.4730    0.3430 hn        1 MOL      0.222112
     29 H9         -8.7570    0.1620    2.1840 h1        1 MOL      0.232712
     30 H10        -9.1140   -2.2990    1.5570 hc        1 MOL      0.030070
     31 H11       -10.4420   -1.8650    0.5640 hc        1 MOL      0.030070
     32 H12       -11.5830   -0.7490    2.3790 hc        1 MOL     -0.001891
     33 H13       -10.2450   -1.1200    3.4760 hc        1 MOL     -0.001891
     34 H14       -10.5600   -3.4790    3.2250 hc        1 MOL      0.026687
     35 H15       -12.0160   -3.2430    2.2920 hc        1 MOL      0.026687
     36 H16       -13.0120   -1.9760    4.1930 hx        1 MOL      0.050296
     37 H17       -11.6400   -2.2820    5.1420 hx        1 MOL      0.050296
     38 H18       -12.2010   -4.7070    4.8500 hn        1 MOL      0.303534
     39 H19       -13.3670   -3.9050    5.6690 hn        1 MOL      0.303534
     40 H20       -13.5990   -4.1680    4.0300 hn        1 MOL      0.303534
     41 N4         -7.9800    0.5390   -0.7930 n         1 MOL     -0.340484
     42 C13        -6.9020    0.5740   -1.8480 c3        1 MOL     -0.302431
     43 C14        -5.6170    1.2210   -1.2670 c         1 MOL      0.655622
     44 O6         -5.6340    2.1290   -0.4370 o         1 MOL     -0.724436
     45 C15        -7.3840    1.3130   -3.1110 c3        1 MOL     -0.117339
     46 C16        -8.0230    2.7020   -2.8610 c         1 MOL      0.433114
     47 O7         -8.3520    3.3770   -3.8410 o         1 MOL     -0.575579
     48 O8         -8.3390    3.1580   -1.7110 o         1 MOL     -0.575579
     49 H21        -8.7520    1.1850   -0.9110 hn        1 MOL      0.201687
     50 H22        -6.6790   -0.4360   -2.1770 h1        1 MOL      0.176698
     51 H23        -8.2010    0.6760   -3.4760 hc        1 MOL      0.107196
     52 H24        -6.5790    1.2850   -3.8420 hc        1 MOL      0.107196
     53 N5         -4.4400    0.8330   -1.7010 n         1 MOL     -0.437882
     54 C17        -4.1370   -0.0350   -2.7630 c3        1 MOL      0.069587
     55 C18        -4.2240   -1.4670   -2.2630 c         1 MOL      0.546238
     56 O9         -4.7840   -1.7790   -1.1780 o         1 MOL     -0.482781
     57 H25        -3.6520    1.2060   -1.1870 hn        1 MOL      0.317890
     58 H26        -3.1910    0.2400   -3.2210 h1        1 MOL      0.058579
     59 H27        -4.7970    0.0540   -3.6270 h1        1 MOL      0.058579
     60 N6         -3.7370   -2.4360   -3.0220 n         1 MOL     -0.655748
     61 C19        -3.8550   -3.8880   -2.7270 c3        1 MOL      0.432702
     62 C20        -2.4940   -4.5710   -2.6690 c         1 MOL      0.398823
     63 O10        -1.5790   -4.1480   -3.4020 o         1 MOL     -0.533053
     64 C21        -4.7320   -4.5570   -3.7570 c3        1 MOL     -0.230383
     65 C22        -5.0990   -5.9770   -3.3280 c         1 MOL      0.659026
     66 O11        -5.1850   -6.9140   -4.1880 o         1 MOL     -0.649913
     67 O12        -5.2260   -6.1760   -2.1010 o         1 MOL     -0.649913
     68 H28        -3.3670   -2.2710   -3.9410 hn        1 MOL      0.301739
     69 H29        -4.2640   -4.0430   -1.7250 h1        1 MOL     -0.048801
     70 H30        -4.1620   -4.4760   -4.6790 hc        1 MOL      0.042787
     71 H31        -5.6460   -3.9770   -3.9410 hc        1 MOL      0.042787
     72 N7         -2.2500   -5.7030   -2.0060 n         1 MOL     -0.248531
     73 C23        -1.0300   -6.5110   -2.1460 c3        1 MOL     -0.064909
     74 C24         0.0620   -6.1320   -1.1440 c         1 MOL      0.489317
     75 O13         0.7670   -6.9650   -0.6080 o         1 MOL     -0.523861
     76 H32        -3.0460   -6.2030   -1.6130 hn        1 MOL      0.233195
     77 H33        -0.6410   -6.4370   -3.1610 h1        1 MOL      0.079123
     78 H34        -1.2000   -7.5600   -1.9000 h1        1 MOL      0.079123
     79 N8          0.1630   -4.7900   -0.9670 n         1 MOL     -0.277395
     80 C25         0.9790   -4.1300    0.0360 c3        1 MOL      0.042115
     81 C26         1.5510   -2.9160   -0.5280 c         1 MOL      0.491166
     82 O14         1.0790   -2.4280   -1.5400 o         1 MOL     -0.485032
     83 C27         0.2310   -3.8830    1.3420 c3        1 MOL      0.095547
     84 C28        -1.0690   -3.0240    1.2430 c3        1 MOL     -0.185585
     85 O15        -0.0610   -5.1810    1.9010 oh        1 MOL     -0.556809
     86 H35        -0.1510   -4.2520   -1.7660 hn        1 MOL      0.191253
     87 H36         1.8170   -4.7980    0.1900 h1        1 MOL      0.067210
     88 H37         0.7700   -3.2800    2.0770 h1        1 MOL      0.032657
     89 H38        -0.5380   -5.0080    2.7210 ho        1 MOL      0.385947
     90 H39        -0.8570   -2.1630    0.6170 hc        1 MOL      0.052955
     91 H40        -1.8430   -3.6530    0.7920 hc        1 MOL      0.052955
     92 H41        -1.4630   -2.7470    2.2220 hc        1 MOL      0.052955
     93 N9          2.5490   -2.3870    0.1630 n         1 MOL     -0.265669
     94 C29         3.2460   -1.1460   -0.0190 c3        1 MOL     -0.264479
     95 C30         4.7740   -1.3950   -0.0550 c         1 MOL      0.588156
     96 O16         5.5140   -0.6690   -0.7330 o         1 MOL     -0.505938
     97 C31         2.8540   -0.1220    1.0140 c3        1 MOL      0.036769
     98 C32         3.2610   -0.6370    2.4080 c3        1 MOL      0.502940
     99 C33         1.2940    0.1900    0.9090 c3        1 MOL     -0.073768
    100 C34         2.9230    0.3150    3.4840 c3        1 MOL     -0.254629
    101 H42         2.7580   -2.7690    1.0730 hn        1 MOL      0.181821
    102 H43         2.9780   -0.8360   -1.0340 h1        1 MOL      0.164563
    103 H44         3.4290    0.8140    1.0350 hc        1 MOL      0.001705
    104 H45         4.3300   -0.8310    2.5050 hc        1 MOL     -0.109439
    105 H46         2.7620   -1.5710    2.6270 hc        1 MOL     -0.109439
    106 H47         1.0830    1.0850    1.4990 hc        1 MOL      0.022403
    107 H48         0.9830    0.4600   -0.0960 hc        1 MOL      0.022403
    108 H49         0.8990   -0.7220    1.3450 hc        1 MOL      0.022403
    109 H50         3.2530    1.3250    3.2640 hc        1 MOL      0.034909
    110 H51         1.8650    0.1890    3.7380 hc        1 MOL      0.034909
    111 H52         3.4150   -0.1470    4.3430 hc        1 MOL      0.034909
    112 N10         5.2500   -2.4860    0.5130 n         1 MOL     -0.460472
    113 C35         6.6170   -2.9350    0.4660 c3        1 MOL     -0.069625
    114 C36         7.4490   -2.4610    1.6620 c         1 MOL      0.712262
    115 O17         7.0080   -2.6870    2.7690 o         1 MOL     -0.560742
    116 C37         6.6600   -4.4200    0.2030 c3        1 MOL      0.320019
    117 C38         6.2770   -4.7430   -1.2450 c3        1 MOL     -0.198607
    118 O18         7.9900   -4.8890    0.3160 oh        1 MOL     -0.660923
    119 H53         4.6560   -2.9950    1.1540 hn        1 MOL      0.230586
    120 H54         7.0330   -2.4540   -0.4240 h1        1 MOL      0.114205
    121 H55         5.9890   -4.9910    0.8480 h1        1 MOL      0.024648
    122 H56         7.8550   -5.8180    0.1270 ho        1 MOL      0.405173
    123 H57         6.4570   -3.9360   -1.9540 hc        1 MOL      0.057399
    124 H58         6.8340   -5.6200   -1.5640 hc        1 MOL      0.057399
    125 H59         5.2300   -5.0610   -1.2340 hc        1 MOL      0.057399
    126 N11         8.6740   -2.0190    1.4480 n         1 MOL     -0.717360
    127 C39         9.5840   -1.5230    2.4980 c3        1 MOL      0.191646
    128 C40         9.8920   -0.0420    2.2490 c         1 MOL      0.653656
    129 O19        10.0040    0.6930    3.2100 o         1 MOL     -0.572744
    130 C41        10.8540   -2.3990    2.4910 c3        1 MOL      0.314031
    131 C42        11.8790   -1.9680    3.5120 c3        1 MOL     -0.237243
    132 O20        11.6210   -2.1160    1.2790 oh        1 MOL     -0.586997
    133 H60         9.0150   -1.9330    0.4990 hn        1 MOL      0.335458
    134 H61         9.1010   -1.6520    3.4690 h1        1 MOL      0.060517
    135 H62        10.7220   -3.4520    2.6980 h1        1 MOL      0.031298
    136 H63        11.3190   -2.8670    0.7670 ho        1 MOL      0.358205
    137 H64        12.7430   -2.6060    3.3230 hc        1 MOL      0.049242
    138 H65        12.1350   -0.9390    3.2920 hc        1 MOL      0.049242
    139 H66        11.4140   -2.0580    4.4950 hc        1 MOL      0.049242
    140 N12        10.1070    0.3940    0.9460 n         1 MOL     -0.600085
    141 C43        10.4360    1.8190    0.5550 c3        1 MOL      0.244568
    142 C44         9.4380    2.2630   -0.5010 c         1 MOL      0.540169
    143 O21         8.8970    1.4480   -1.2650 o         1 MOL     -0.502037
    144 C45        11.9070    1.9740    0.0790 c3        1 MOL     -0.359528
    145 C46        12.9050    1.7550    1.2530 c3        1 MOL      0.049400
    146 C47        14.3250    2.2370    0.7840 c3        1 MOL     -0.123114
    147 C48        14.8910    1.1600   -0.2300 c3        1 MOL      0.062301
    148 N13        16.3420    1.2180   -0.3770 n4        1 MOL     -0.348705
    149 H67        10.0300   -0.2230    0.1540 hn        1 MOL      0.274502
    150 H68        10.3080    2.4790    1.4180 h1        1 MOL      0.048744
    151 H69        12.0620    2.9870   -0.3030 hc        1 MOL      0.109658
    152 H70        12.0670    1.1790   -0.6430 hc        1 MOL      0.109658
    153 H71        13.0070    0.6880    1.4300 hc        1 MOL      0.054499
    154 H72        12.6830    2.3100    2.1600 hc        1 MOL      0.054499
    155 H73        14.9600    2.2520    1.6700 hc        1 MOL      0.055000
    156 H74        14.3050    3.2530    0.3940 hc        1 MOL      0.055000
    157 H75        14.3160    1.0120   -1.1410 hx        1 MOL      0.086821
    158 H76        14.6790    0.2230    0.2980 hx        1 MOL      0.086821
    159 H77        16.6130    2.1320   -0.7340 hn        1 MOL      0.287682
    160 H78        16.7470    1.0790    0.5400 hn        1 MOL      0.287682
    161 H79        16.7750    0.6260   -1.0720 hn        1 MOL      0.287682
    162 N14         9.2590    3.5700   -0.5910 n         1 MOL     -0.482613
    163 C49         8.1300    4.1560   -1.3810 c3        1 MOL      0.011386
    164 C50         6.7030    3.5890   -1.0940 c         1 MOL      0.519612
    165 O22         6.0820    3.0240   -1.9350 o         1 MOL     -0.526385
    166 C51         8.1730    5.6870   -1.6200 c3        1 MOL     -0.011933
    167 C52         9.5780    6.2790   -2.0730 c3        1 MOL     -0.118409
    168 C53         9.4920    7.7920   -2.0770 c         1 MOL      0.643415
    169 O23         9.9350    8.3880   -1.0450 o         1 MOL     -0.650171
    170 O24         8.8180    8.2820   -3.0070 o         1 MOL     -0.650171
    171 H80         9.6760    4.1780    0.1000 hn        1 MOL      0.305914
    172 H81         8.3630    3.7060   -2.3390 h1        1 MOL      0.087375
    173 H82         7.8670    6.1730   -0.6950 hc        1 MOL      0.063635
    174 H83         7.4240    5.9840   -2.3480 hc        1 MOL      0.063635
    175 H84         9.8960    5.9400   -3.0490 hc        1 MOL     -0.006788
    176 H85        10.3550    6.0370   -1.3470 hc        1 MOL     -0.006788
    177 N15         5.9840    3.8530    0.0110 n         1 MOL     -0.436658
    178 C54         6.4000    4.6780    1.1510 c3        1 MOL      0.041286
    179 H86         7.2840    4.2380    1.6140 h1        1 MOL      0.018869
    180 H87         6.6350    5.6850    0.8050 h1        1 MOL      0.018869
    181 H88         5.5930    4.7240    1.8810 h1        1 MOL      0.018869
    182 H89         5.0020    3.6160    0.1340 hn        1 MOL      0.310242
    183 Ca1        -7.1150    4.1790    0.2890 Ca        1 MOL      1.702641
    184 O25        -6.3830    2.7410    2.5030 oh        1 MOL     -0.746799
    185 H90        -6.5530    1.8130    2.6380 ho        1 MOL      0.389459
    186 H91        -6.8300    3.1740    3.2290 ho        1 MOL      0.389459
@<TRIPOS>BOND
     1    1    2 1   
     2    1    4 1   
     3    1    5 1   
     4    1    6 1   
     5    2    3 2   
     6    2    7 1   
     7    7    8 1   
     8    7   15 1   
     9    8    9 1   
    10    8   11 1   
    11    8   16 1   
    12    9   10 2   
    13    9   19 1   
    14   11   12 1   
    15   11   17 1   
    16   11   18 1   
    17   12   13 1   
    18   12   14 1   
    19   19   20 1   
    20   19   28 1   
    21   20   21 1   
    22   20   23 1   
    23   20   29 1   
    24   21   22 2   
    25   21   41 1   
    26   23   24 1   
    27   23   30 1   
    28   23   31 1   
    29   24   25 1   
    30   24   32 1   
    31   24   33 1   
    32   25   26 1   
    33   25   34 1   
    34   25   35 1   
    35   26   27 1   
    36   26   36 1   
    37   26   37 1   
    38   27   38 1   
    39   27   39 1   
    40   27   40 1   
    41   41   42 1   
    42   41   49 1   
    43   42   43 1   
    44   42   45 1   
    45   42   50 1   
    46   43   44 2   
    47   43   53 1   
    48   45   46 1   
    49   45   51 1   
    50   45   52 1   
    51   46   47 1   
    52   46   48 1   
    53   53   54 1   
    54   53   57 1   
    55   54   55 1   
    56   54   58 1   
    57   54   59 1   
    58   55   56 2   
    59   55   60 1   
    60   60   61 1   
    61   60   68 1   
    62   61   62 1   
    63   61   64 1   
    64   61   69 1   
    65   62   63 2   
    66   62   72 1   
    67   64   65 1   
    68   64   70 1   
    69   64   71 1   
    70   65   66 1   
    71   65   67 1   
    72   72   73 1   
    73   72   76 1   
    74   73   74 1   
    75   73   77 1   
    76   73   78 1   
    77   74   75 2   
    78   74   79 1   
    79   79   80 1   
    80   79   86 1   
    81   80   81 1   
    82   80   83 1   
    83   80   87 1   
    84   81   82 2   
    85   81   93 1   
    86   83   84 1   
    87   83   85 1   
    88   83   88 1   
    89   84   90 1   
    90   84   91 1   
    91   84   92 1   
    92   85   89 1   
    93   93   94 1   
    94   93  101 1   
    95   94   95 1   
    96   94   97 1   
    97   94  102 1   
    98   95   96 2   
    99   95  112 1   
   100   97   98 1   
   101   97   99 1   
   102   97  103 1   
   103   98  100 1   
   104   98  104 1   
   105   98  105 1   
   106   99  106 1   
   107   99  107 1   
   108   99  108 1   
   109  100  109 1   
   110  100  110 1   
   111  100  111 1   
   112  112  113 1   
   113  112  119 1   
   114  113  114 1   
   115  113  116 1   
   116  113  120 1   
   117  114  115 2   
   118  114  126 1   
   119  116  117 1   
   120  116  118 1   
   121  116  121 1   
   122  117  123 1   
   123  117  124 1   
   124  117  125 1   
   125  118  122 1   
   126  126  127 1   
   127  126  133 1   
   128  127  128 1   
   129  127  130 1   
   130  127  134 1   
   131  128  129 2   
   132  128  140 1   
   133  130  131 1   
   134  130  132 1   
   135  130  135 1   
   136  131  137 1   
   137  131  138 1   
   138  131  139 1   
   139  132  136 1   
   140  140  141 1   
   141  140  149 1   
   142  141  142 1   
   143  141  144 1   
   144  141  150 1   
   145  142  143 2   
   146  142  162 1   
   147  144  145 1   
   148  144  151 1   
   149  144  152 1   
   150  145  146 1   
   151  145  153 1   
   152  145  154 1   
   153  146  147 1   
   154  146  155 1   
   155  146  156 1   
   156  147  148 1   
   157  147  157 1   
   158  147  158 1   
   159  148  159 1   
   160  148  160 1   
   161  148  161 1   
   162  162  163 1   
   163  162  171 1   
   164  163  164 1   
   165  163  166 1   
   166  163  172 1   
   167  164  165 2   
   168  164  177 1   
   169  166  167 1   
   170  166  173 1   
   171  166  174 1   
   172  167  168 1   
   173  167  175 1   
   174  167  176 1   
   175  168  169 1   
   176  168  170 1   
   177  177  178 1   
   178  177  182 1   
   179  178  179 1   
   180  178  180 1   
   181  178  181 1   
   182  184  185 1   
   183  184  186 1   
@<TRIPOS>SUBSTRUCTURE
     1 MOL         1 TEMP              0 ****  ****    0 ROOT
