@<TRIPOS>MOLECULE
MOL
  192   187     1     0     0
SMALL
resp


@<TRIPOS>ATOM
      1 C1         -6.7990   -2.0730    2.8640 c3        1 MOL     -0.008465
      2 C2         -5.5130   -2.4030    2.0440 c         1 MOL      0.404280
      3 O1         -4.6200   -1.5490    2.0060 o         1 MOL     -0.463237
      4 H1         -7.5320   -1.5990    2.2130 hc        1 MOL     -0.007059
      5 H2         -7.2170   -2.9930    3.2720 hc        1 MOL     -0.007059
      6 H3         -6.5460   -1.3950    3.6800 hc        1 MOL     -0.007059
      7 N1         -5.3490   -3.5220    1.3550 n         1 MOL     -0.549332
      8 C3         -4.1800   -3.8370    0.5550 c3        1 MOL      0.005379
      9 C4         -2.7290   -3.6860    1.1710 c         1 MOL      0.661514
     10 O2         -1.8420   -3.4360    0.3720 o         1 MOL     -0.594066
     11 C5         -4.3840   -3.4190   -0.8800 c3        1 MOL     -0.047031
     12 C6         -5.7920   -3.4290   -1.4140 c         1 MOL      0.694965
     13 O3         -6.4640   -2.3800   -1.4280 o         1 MOL     -0.743562
     14 O4         -6.1650   -4.4570   -2.0580 o         1 MOL     -0.743562
     15 H4         -6.0530   -4.2350    1.4710 hn        1 MOL      0.338611
     16 H5         -4.2370   -4.9160    0.6720 h1        1 MOL      0.029680
     17 H6         -3.8180   -4.1130   -1.5080 hc        1 MOL      0.058854
     18 H7         -3.9770   -2.4200   -1.0310 hc        1 MOL      0.058854
     19 N2         -2.5740   -3.8010    2.5060 n         1 MOL     -0.467780
     20 C7         -1.2750   -3.6490    3.1980 c3        1 MOL     -0.032885
     21 C8         -0.5620   -5.0230    3.2380 c         1 MOL      0.445229
     22 O5         -1.0640   -5.8940    3.8940 o         1 MOL     -0.569832
     23 C9         -1.6360   -3.1390    4.6320 c3        1 MOL     -0.067035
     24 C10        -2.2490   -1.6940    4.6060 c3        1 MOL      0.318700
     25 C11        -0.2570   -3.0820    5.4170 c3        1 MOL     -0.131053
     26 C12        -3.0890   -1.5390    5.8330 c3        1 MOL     -0.405746
     27 H8         -3.3860   -3.9830    3.0850 hn        1 MOL      0.294217
     28 H9         -0.7480   -2.8900    2.6270 h1        1 MOL      0.155649
     29 H10        -2.3370   -3.8480    5.0610 hc        1 MOL      0.054103
     30 H11        -2.7550   -1.3650    3.6970 hc        1 MOL     -0.028357
     31 H12        -1.4940   -0.9100    4.5880 hc        1 MOL     -0.028357
     32 H13         0.1500   -4.0270    5.7600 hc        1 MOL      0.031553
     33 H14         0.4470   -2.4560    4.8550 hc        1 MOL      0.031553
     34 H15        -0.3620   -2.6670    6.4170 hc        1 MOL      0.031553
     35 H16        -3.3930   -0.4900    5.8410 hc        1 MOL      0.082830
     36 H17        -3.9280   -2.2280    5.7080 hc        1 MOL      0.082830
     37 H18        -2.4840   -1.5970    6.7350 hc        1 MOL      0.082830
     38 N3          0.5460   -5.3060    2.5460 n         1 MOL     -0.263456
     39 C13         1.3340   -4.4710    1.6670 c3        1 MOL     -0.046311
     40 C14         1.7440   -5.2740    0.4320 c         1 MOL      0.502229
     41 O6          2.1040   -6.4130    0.4750 o         1 MOL     -0.507630
     42 C15         2.5300   -3.8540    2.3980 c3        1 MOL     -0.297546
     43 C16         3.3290   -2.9460    1.5320 c         1 MOL      0.701966
     44 O7          4.3160   -3.3870    0.8390 o         1 MOL     -0.653716
     45 O8          2.9020   -1.7730    1.4400 o         1 MOL     -0.653716
     46 H19         0.8650   -6.2640    2.6160 hn        1 MOL      0.248243
     47 H20         0.6790   -3.6370    1.3960 h1        1 MOL      0.022686
     48 H21         3.1320   -4.5510    2.9970 hc        1 MOL      0.066765
     49 H22         2.1450   -3.2970    3.2470 hc        1 MOL      0.066765
     50 N4          1.5850   -4.5680   -0.7110 n         1 MOL     -0.339523
     51 C17         1.8930   -4.9870   -2.1320 c3        1 MOL     -0.234944
     52 C18         3.1520   -4.4890   -2.8060 c         1 MOL      0.677568
     53 O9          3.3300   -4.7130   -4.0390 o         1 MOL     -0.630721
     54 H23         1.2120   -3.6380   -0.5860 hn        1 MOL      0.355995
     55 H24         1.1240   -4.5620   -2.7770 h1        1 MOL      0.120374
     56 H25         1.9480   -6.0780   -2.2190 h1        1 MOL      0.120374
     57 N5          4.0140   -3.6070   -2.2610 n         1 MOL     -0.492457
     58 C19         5.1370   -3.0010   -3.0440 c3        1 MOL      0.001974
     59 C20         6.4390   -2.8150   -2.3360 c         1 MOL      0.516549
     60 O10         7.4250   -2.7150   -3.0310 o         1 MOL     -0.574017
     61 C21         4.6900   -1.6530   -3.7400 c3        1 MOL     -0.156572
     62 C22         4.0480   -0.6470   -2.7790 c         1 MOL      0.691665
     63 O11         4.7950   -0.0850   -1.9340 o         1 MOL     -0.646740
     64 O12         2.8070   -0.6500   -2.8970 o         1 MOL     -0.646740
     65 H26         3.8740   -3.3240   -1.3000 hn        1 MOL      0.311938
     66 H27         5.3750   -3.7180   -3.8220 h1        1 MOL      0.100325
     67 H28         3.9790   -2.0220   -4.4780 hc        1 MOL      0.038325
     68 H29         5.4540   -1.1250   -4.3020 hc        1 MOL      0.038325
     69 N6          6.5800   -2.7140   -0.9990 n         1 MOL     -0.357875
     70 C23         7.8660   -2.4680   -0.2940 c3        1 MOL     -0.190556
     71 C24         8.4390   -1.0430   -0.4450 c         1 MOL      0.474133
     72 O13         9.5470   -0.7500    0.0820 o         1 MOL     -0.597155
     73 H30         5.7740   -2.5960   -0.3900 hn        1 MOL      0.263123
     74 H31         8.5900   -3.1550   -0.7410 h1        1 MOL      0.110950
     75 H32         7.6790   -2.6490    0.7670 h1        1 MOL      0.110950
     76 N7          7.6870   -0.1620   -1.1410 n         1 MOL      0.031152
     77 C25         7.9420    1.2330   -1.3650 c3        1 MOL     -0.065024
     78 C26         7.9120    2.0780   -0.0620 c         1 MOL      0.603424
     79 O14         8.6180    3.0760    0.0630 o         1 MOL     -0.540356
     80 C27         9.2360    1.3970   -2.2690 c3        1 MOL      0.108305
     81 C28         9.0190    0.7150   -3.6640 c3        1 MOL     -0.043458
     82 C29        10.1800    1.0310   -4.5880 c         1 MOL      0.540090
     83 N8         10.8360    0.0680   -5.1350 n         1 MOL     -0.666711
     84 O15        10.6520    2.1410   -4.8220 o         1 MOL     -0.578976
     85 H33         6.8310   -0.5020   -1.5600 hn        1 MOL      0.082761
     86 H34         7.0990    1.6130   -1.9360 h1        1 MOL      0.076559
     87 H35        10.1490    1.0420   -1.7930 hc        1 MOL     -0.012418
     88 H36         9.3060    2.4640   -2.4650 hc        1 MOL     -0.012418
     89 H37         8.0980    1.0120   -4.1370 hc        1 MOL      0.006923
     90 H38         8.9910   -0.3630   -3.5250 hc        1 MOL      0.006923
     91 H39        10.4560   -0.8560   -5.2330 hn        1 MOL      0.312744
     92 H40        11.6470    0.3400   -5.6790 hn        1 MOL      0.312744
     93 N9          7.1200    1.5900    0.9420 n         1 MOL     -0.580606
     94 C30         6.9540    2.2860    2.2880 c3        1 MOL      0.026084
     95 C31         5.5050    2.4870    2.7830 c         1 MOL      0.557921
     96 O16         5.3400    3.3160    3.6850 o         1 MOL     -0.611477
     97 C32         7.7610    1.5900    3.4020 c3        1 MOL      0.251750
     98 C33         7.0540    0.2100    3.7880 c3        1 MOL     -0.266215
     99 C34         9.2190    1.3660    2.9700 c3        1 MOL     -0.266215
    100 H41         6.6540    0.7040    0.8170 hn        1 MOL      0.303144
    101 H42         7.3690    3.2940    2.1660 h1        1 MOL      0.089251
    102 H43         7.8460    2.2670    4.2560 hc        1 MOL     -0.037421
    103 H44         6.1810    0.4020    4.4150 hc        1 MOL      0.056690
    104 H45         6.8090   -0.4250    2.9490 hc        1 MOL      0.056690
    105 H46         7.7560   -0.3690    4.3990 hc        1 MOL      0.056690
    106 H47         9.4910    2.2570    2.4100 hc        1 MOL      0.056690
    107 H48         9.9380    1.2460    3.7920 hc        1 MOL      0.056690
    108 H49         9.1950    0.6030    2.1890 hc        1 MOL      0.056690
    109 N10         4.5010    1.9690    2.1270 n         1 MOL     -0.533100
    110 C35         3.1020    2.1920    2.4190 c3        1 MOL      0.499428
    111 C36         2.2680    2.3100    1.0700 c         1 MOL      0.425386
    112 O17         2.7330    1.9360    0.0160 o         1 MOL     -0.482800
    113 C37         2.6370    1.1300    3.3870 c3        1 MOL     -0.096367
    114 C38         1.1810    0.6080    3.3030 c         1 MOL      0.502038
    115 N11         0.8380   -0.5620    2.8120 n         1 MOL     -0.625029
    116 O18         0.2500    1.3700    3.5320 o         1 MOL     -0.607837
    117 H50         4.8090    1.3460    1.3920 hn        1 MOL      0.263760
    118 H51         2.8580    3.1500    2.8610 h1        1 MOL     -0.042803
    119 H52         2.7830    1.4700    4.4080 hc        1 MOL      0.017459
    120 H53         3.2630    0.2540    3.1720 hc        1 MOL      0.017459
    121 H54         1.5510   -1.1070    2.3470 hn        1 MOL      0.334809
    122 H55        -0.1250   -0.8120    2.7020 hn        1 MOL      0.334809
    123 N12         1.0070    2.7650    1.2110 n         1 MOL     -0.589220
    124 C39         0.0620    2.6970    0.0590 c3        1 MOL      0.184356
    125 C40        -1.0090    3.8090    0.2110 c         1 MOL      0.498108
    126 O19        -1.7750    3.7840    1.1930 o         1 MOL     -0.567904
    127 C41        -0.5810    1.2720    0.0530 c3        1 MOL     -0.042597
    128 C42        -1.8020    1.0940   -0.7740 ca        1 MOL     -0.055588
    129 C43        -1.7680    1.2970   -2.1830 ca        1 MOL     -0.080382
    130 C44        -2.9540    0.5100   -0.1610 ca        1 MOL     -0.080382
    131 C45        -2.8410    0.9040   -2.9590 ca        1 MOL     -0.210642
    132 C46        -4.0490    0.0600   -0.9260 ca        1 MOL     -0.210642
    133 C47        -3.9790    0.3340   -2.3230 ca        1 MOL      0.334932
    134 O20        -5.0300   -0.1710   -3.0920 oh        1 MOL     -0.673628
    135 H56         0.6460    3.0060    2.1290 hn        1 MOL      0.324209
    136 H57         0.6330    2.8280   -0.8630 h1        1 MOL      0.058764
    137 H58        -0.6760    0.8330    1.0540 hc        1 MOL      0.081073
    138 H59         0.0820    0.5790   -0.4600 hc        1 MOL      0.081073
    139 H60        -0.9360    1.7620   -2.6910 ha        1 MOL      0.099548
    140 H61        -2.9940    0.3790    0.9140 ha        1 MOL      0.099548
    141 H62        -2.7920    0.9060   -4.0350 ha        1 MOL      0.119563
    142 H63        -4.9200   -0.4020   -0.4900 ha        1 MOL      0.119563
    143 H64        -5.7910   -0.3390   -2.5250 ho        1 MOL      0.598156
    144 N13        -1.2270    4.6060   -0.7700 n         1 MOL     -0.523089
    145 C48        -2.3600    5.5910   -0.7920 c3        1 MOL      0.244913
    146 C49        -3.2480    5.2820   -1.9690 c         1 MOL      0.473438
    147 O21        -2.8530    5.6640   -3.0810 o         1 MOL     -0.558147
    148 C50        -1.9440    7.0520   -0.6890 c3        1 MOL      0.063535
    149 C51        -1.1200    7.4380    0.5410 c3        1 MOL     -0.112484
    150 C52        -1.0720    8.9730    0.7060 c         1 MOL      0.644049
    151 O22        -0.1320    9.6290    0.1720 o         1 MOL     -0.662912
    152 O23        -1.9880    9.5280    1.4300 o         1 MOL     -0.662912
    153 H65        -0.6550    4.5790   -1.6040 hn        1 MOL      0.307873
    154 H66        -3.0070    5.4660    0.0780 h1        1 MOL      0.046414
    155 H67        -2.8110    7.7040   -0.7580 hc        1 MOL     -0.008524
    156 H68        -1.3450    7.2300   -1.5780 hc        1 MOL     -0.008524
    157 H69        -0.1070    7.0250    0.5180 hc        1 MOL      0.015627
    158 H70        -1.6000    7.0750    1.4410 hc        1 MOL      0.015627
    159 N14        -4.4830    4.7450   -1.8010 n         1 MOL     -0.538563
    160 C53        -4.8710    3.8900   -0.6530 c3        1 MOL      0.026574
    161 C54        -5.3880    4.6750    0.5510 c         1 MOL      0.515536
    162 O24        -6.0630    5.7280    0.4020 o         1 MOL     -0.549951
    163 C55        -5.9770    2.9240   -1.2650 c3        1 MOL     -0.116962
    164 C56        -6.5460    2.0120   -0.1610 c3        1 MOL     -0.452772
    165 C57        -7.4730    0.8650   -0.6700 c         1 MOL      1.161787
    166 O25        -7.3590    0.3900   -1.8090 o         1 MOL     -0.875628
    167 O26        -8.3280    0.3630    0.0480 o         1 MOL     -0.875628
    168 H71        -5.0800    4.6210   -2.6170 hn        1 MOL      0.326850
    169 H72        -4.0140    3.3060   -0.3160 h1        1 MOL      0.040781
    170 H73        -5.5360    2.4030   -2.1170 hc        1 MOL      0.061508
    171 H74        -6.7280    3.5770   -1.7220 hc        1 MOL      0.061508
    172 H75        -7.0970    2.6100    0.5600 hc        1 MOL      0.076483
    173 H76        -5.6660    1.6780    0.3860 hc        1 MOL      0.076483
    174 N15        -5.0480    4.1350    1.7450 n         1 MOL     -0.155857
    175 C58        -5.1700    4.8590    2.9950 c3        1 MOL     -0.222533
    176 H77        -6.1960    5.2080    3.1130 h1        1 MOL      0.089497
    177 H78        -4.9130    4.1990    3.8230 h1        1 MOL      0.089497
    178 H79        -4.4940    5.7140    2.9870 h1        1 MOL      0.089497
    179 H80        -4.7200    3.1760    1.7590 hn        1 MOL      0.242608
    180 Ca1        -9.0390   -1.5700   -1.6330 Ca        1 MOL      1.724654
    181 O27       -10.5810    0.5480   -2.4090 oh        1 MOL     -0.901020
    182 H81       -11.1690    0.5880   -3.1630 ho        1 MOL      0.407104
    183 H82       -10.1280    1.3930   -2.4220 ho        1 MOL      0.407104
    184 O28       -10.7120   -3.1370   -3.6210 oh        1 MOL     -0.901020
    185 H83       -11.2820   -3.9080   -3.5350 ho        1 MOL      0.407104
    186 H84       -10.4680   -3.1290   -4.5520 ho        1 MOL      0.407104
    187 O29        -8.6750   -1.1690   -4.1980 oh        1 MOL     -0.901020
    188 H85        -8.6490   -0.2990   -4.5870 ho        1 MOL      0.407104
    189 H86        -8.9080   -1.7490   -4.9340 ho        1 MOL      0.407104
    190 O30        -8.9270   -4.3380   -1.5240 oh        1 MOL     -0.901020
    191 H87        -7.9850   -4.4600   -1.6260 ho        1 MOL      0.407104
    192 H88        -9.3180   -4.8420   -2.2430 ho        1 MOL      0.407104
@<TRIPOS>BOND
     1    1    2 1   
     2    1    4 1   
     3    1    5 1   
     4    1    6 1   
     5    2    3 2   
     6    2    7 1   
     7    7    8 1   
     8    7   15 1   
     9    8    9 1   
    10    8   11 1   
    11    8   16 1   
    12    9   10 2   
    13    9   19 1   
    14   11   12 1   
    15   11   17 1   
    16   11   18 1   
    17   12   13 1   
    18   12   14 1   
    19   19   20 1   
    20   19   27 1   
    21   20   21 1   
    22   20   23 1   
    23   20   28 1   
    24   21   22 2   
    25   21   38 1   
    26   23   24 1   
    27   23   25 1   
    28   23   29 1   
    29   24   26 1   
    30   24   30 1   
    31   24   31 1   
    32   25   32 1   
    33   25   33 1   
    34   25   34 1   
    35   26   35 1   
    36   26   36 1   
    37   26   37 1   
    38   38   39 1   
    39   38   46 1   
    40   39   40 1   
    41   39   42 1   
    42   39   47 1   
    43   40   41 2   
    44   40   50 1   
    45   42   43 1   
    46   42   48 1   
    47   42   49 1   
    48   43   44 1   
    49   43   45 1   
    50   50   51 1   
    51   50   54 1   
    52   51   52 1   
    53   51   55 1   
    54   51   56 1   
    55   52   53 2   
    56   52   57 1   
    57   57   58 1   
    58   57   65 1   
    59   58   59 1   
    60   58   61 1   
    61   58   66 1   
    62   59   60 2   
    63   59   69 1   
    64   61   62 1   
    65   61   67 1   
    66   61   68 1   
    67   62   63 1   
    68   62   64 1   
    69   69   70 1   
    70   69   73 1   
    71   70   71 1   
    72   70   74 1   
    73   70   75 1   
    74   71   72 2   
    75   71   76 1   
    76   76   77 1   
    77   76   85 1   
    78   77   78 1   
    79   77   80 1   
    80   77   86 1   
    81   78   79 2   
    82   78   93 1   
    83   80   81 1   
    84   80   87 1   
    85   80   88 1   
    86   81   82 1   
    87   81   89 1   
    88   81   90 1   
    89   82   83 1   
    90   82   84 2   
    91   83   91 1   
    92   83   92 1   
    93   93   94 1   
    94   93  100 1   
    95   94   95 1   
    96   94   97 1   
    97   94  101 1   
    98   95   96 2   
    99   95  109 1   
   100   97   98 1   
   101   97   99 1   
   102   97  102 1   
   103   98  103 1   
   104   98  104 1   
   105   98  105 1   
   106   99  106 1   
   107   99  107 1   
   108   99  108 1   
   109  109  110 1   
   110  109  117 1   
   111  110  111 1   
   112  110  113 1   
   113  110  118 1   
   114  111  112 2   
   115  111  123 1   
   116  113  114 1   
   117  113  119 1   
   118  113  120 1   
   119  114  115 1   
   120  114  116 2   
   121  115  121 1   
   122  115  122 1   
   123  123  124 1   
   124  123  135 1   
   125  124  125 1   
   126  124  127 1   
   127  124  136 1   
   128  125  126 2   
   129  125  144 1   
   130  127  128 1   
   131  127  137 1   
   132  127  138 1   
   133  128  129 ar  
   134  128  130 ar  
   135  129  131 ar  
   136  129  139 1   
   137  130  132 ar  
   138  130  140 1   
   139  131  133 ar  
   140  131  141 1   
   141  132  133 ar  
   142  132  142 1   
   143  133  134 1   
   144  134  143 1   
   145  144  145 1   
   146  144  153 1   
   147  145  146 1   
   148  145  148 1   
   149  145  154 1   
   150  146  147 2   
   151  146  159 1   
   152  148  149 1   
   153  148  155 1   
   154  148  156 1   
   155  149  150 1   
   156  149  157 1   
   157  149  158 1   
   158  150  151 1   
   159  150  152 1   
   160  159  160 1   
   161  159  168 1   
   162  160  161 1   
   163  160  163 1   
   164  160  169 1   
   165  161  162 2   
   166  161  174 1   
   167  163  164 1   
   168  163  170 1   
   169  163  171 1   
   170  164  165 1   
   171  164  172 1   
   172  164  173 1   
   173  165  166 1   
   174  165  167 1   
   175  174  175 1   
   176  174  179 1   
   177  175  176 1   
   178  175  177 1   
   179  175  178 1   
   180  181  182 1   
   181  181  183 1   
   182  184  185 1   
   183  184  186 1   
   184  187  188 1   
   185  187  189 1   
   186  190  191 1   
   187  190  192 1   
@<TRIPOS>SUBSTRUCTURE
     1 MOL         1 TEMP              0 ****  ****    0 ROOT
