@<TRIPOS>MOLECULE
MOL
  188   182     1     0     0
SMALL
resp


@<TRIPOS>ATOM
      1 C1         -4.5530    0.5590   -4.0650 c3        1 MOL     -0.511507
      2 C2         -5.2980    0.3860   -2.7270 c         1 MOL      0.652275
      3 O1         -4.6750    0.2070   -1.7120 o         1 MOL     -0.516590
      4 H1         -3.7490   -0.1740   -4.1300 hc        1 MOL      0.141381
      5 H2         -5.2480    0.4100   -4.8910 hc        1 MOL      0.141381
      6 H3         -4.1330    1.5640   -4.1210 hc        1 MOL      0.141381
      7 N1         -6.6370    0.4910   -2.6690 n         1 MOL     -0.536253
      8 C3         -7.5000    0.3160   -1.5180 c3        1 MOL      0.027251
      9 C4         -7.1500   -0.9420   -0.7310 c         1 MOL      0.455344
     10 O2         -7.3390   -1.0420    0.5340 o         1 MOL     -0.478669
     11 C5         -7.6030    1.5770   -0.6590 c3        1 MOL     -0.144320
     12 C6         -7.8940    2.8850   -1.4090 c         1 MOL      0.696812
     13 O3         -6.9790    3.6330   -1.8070 o         1 MOL     -0.657544
     14 O4         -9.0880    3.2870   -1.5040 o         1 MOL     -0.657544
     15 H4         -7.0670    0.7690   -3.5420 hn        1 MOL      0.312905
     16 H5         -8.5050    0.0460   -1.8360 h1        1 MOL      0.069724
     17 H6         -6.6760    1.7470   -0.1180 hc        1 MOL      0.054745
     18 H7         -8.4330    1.4500    0.0410 hc        1 MOL      0.054745
     19 N2         -6.6220   -1.9980   -1.4150 n         1 MOL     -0.293266
     20 C7         -6.3870   -3.3540   -0.8800 c3        1 MOL     -0.248316
     21 C8         -5.1830   -3.5380    0.0560 c         1 MOL      0.712725
     22 O5         -5.2190   -4.4340    0.8260 o         1 MOL     -0.589398
     23 C9         -6.5260   -4.4950   -1.9260 c3        1 MOL     -0.007771
     24 C10        -7.7840   -4.4010   -2.7990 c3        1 MOL     -0.003762
     25 C11        -7.8540   -5.5110   -3.7930 c3        1 MOL     -0.255992
     26 C12        -9.1530   -5.4040   -4.6430 c3        1 MOL      0.154483
     27 N3         -9.2270   -6.3570   -5.7980 n4        1 MOL     -0.283232
     28 H8         -6.6610   -1.8680   -2.4160 hn        1 MOL      0.207516
     29 H9         -7.2550   -3.5150   -0.2360 h1        1 MOL      0.133011
     30 H10        -6.5690   -5.4620   -1.4150 hc        1 MOL      0.050057
     31 H11        -5.6460   -4.6810   -2.5390 hc        1 MOL      0.050057
     32 H12        -7.9190   -3.4360   -3.2850 hc        1 MOL      0.037665
     33 H13        -8.6150   -4.4440   -2.0910 hc        1 MOL      0.037665
     34 H14        -8.0090   -6.4650   -3.2960 hc        1 MOL      0.098378
     35 H15        -6.9040   -5.4950   -4.3290 hc        1 MOL      0.098378
     36 H16        -9.2720   -4.4100   -5.0750 hx        1 MOL      0.051770
     37 H17       -10.0380   -5.5640   -4.0360 hx        1 MOL      0.051770
     38 H18       -10.0780   -6.1490   -6.2930 hn        1 MOL      0.251993
     39 H19        -8.4220   -6.2290   -6.3870 hn        1 MOL      0.251993
     40 H20        -9.2000   -7.3150   -5.4690 hn        1 MOL      0.251993
     41 N4         -4.2030   -2.6620   -0.0250 n         1 MOL     -0.379936
     42 C13        -3.0940   -2.5290    0.9250 c3        1 MOL     -0.196452
     43 C14        -3.6290   -2.0480    2.2820 c         1 MOL      0.614320
     44 O6         -4.3840   -1.0770    2.2700 o         1 MOL     -0.473077
     45 C15        -2.1410   -1.6140    0.3200 c3        1 MOL     -0.048703
     46 C16        -0.9560   -1.2380    1.1640 c         1 MOL      0.705589
     47 O7         -0.9730   -0.7670    2.3270 o         1 MOL     -0.717464
     48 O8          0.1540   -1.5730    0.7640 o         1 MOL     -0.717464
     49 H21        -4.3490   -1.8380   -0.6000 hn        1 MOL      0.235034
     50 H22        -2.6390   -3.5150    1.0390 h1        1 MOL      0.109910
     51 H23        -2.6300   -0.6810    0.0580 hc        1 MOL      0.058720
     52 H24        -1.8090   -2.0160   -0.6340 hc        1 MOL      0.058720
     53 N5         -3.3360   -2.7550    3.4210 n         1 MOL     -0.294726
     54 C17        -3.8640   -2.5040    4.7750 c3        1 MOL     -0.226935
     55 C18        -3.5580   -1.1070    5.4700 c         1 MOL      0.518605
     56 O9         -4.2030   -0.7410    6.4820 o         1 MOL     -0.554037
     57 H25        -2.8010   -3.6040    3.3200 hn        1 MOL      0.247182
     58 H26        -3.4950   -3.2400    5.4820 h1        1 MOL      0.127298
     59 H27        -4.9500   -2.5630    4.7210 h1        1 MOL      0.127298
     60 N6         -2.6490   -0.2550    4.9300 n         1 MOL     -0.276840
     61 C19        -2.6360    1.1800    5.1580 c3        1 MOL      0.069365
     62 C20        -2.9570    2.0320    3.8320 c         1 MOL      0.371880
     63 O10        -3.2260    3.2000    4.0030 o         1 MOL     -0.533920
     64 C21        -1.3100    1.5250    5.9060 c3        1 MOL     -0.266318
     65 C22        -0.0920    1.4070    5.0540 c         1 MOL      0.589686
     66 N7          0.5900    2.4230    4.5930 n         1 MOL     -0.751218
     67 O11         0.3910    0.2920    4.8050 o         1 MOL     -0.546876
     68 H28        -2.0660   -0.5370    4.1540 hn        1 MOL      0.119908
     69 H29        -3.4030    1.4450    5.8810 h1        1 MOL      0.125301
     70 H30        -1.2270    0.8070    6.7100 hc        1 MOL      0.097485
     71 H31        -1.4850    2.5460    6.2510 hc        1 MOL      0.097485
     72 H32         0.3020    3.3660    4.8290 hn        1 MOL      0.355872
     73 H33         1.2440    2.3020    3.8370 hn        1 MOL      0.355872
     74 N8         -2.8150    1.5550    2.6080 n         1 MOL     -0.018185
     75 C23        -3.0250    2.2570    1.3080 c3        1 MOL     -0.479151
     76 C24        -1.6730    2.6940    0.6840 c         1 MOL      0.762467
     77 O12        -0.6670    2.6950    1.3690 o         1 MOL     -0.573655
     78 H34        -2.5120    0.5940    2.5450 hn        1 MOL      0.127367
     79 H35        -3.6010    3.1510    1.5260 h1        1 MOL      0.205135
     80 H36        -3.4840    1.5470    0.6130 h1        1 MOL      0.205135
     81 N9         -1.6630    2.9930   -0.6070 n         1 MOL     -0.448280
     82 C25        -0.4460    3.5450   -1.2620 c3        1 MOL     -0.030771
     83 C26         0.5470    2.5340   -1.8830 c         1 MOL      0.685734
     84 O13         0.1000    1.4640   -2.2550 o         1 MOL     -0.520693
     85 C27        -0.9810    4.3990   -2.4240 c3        1 MOL     -0.199099
     86 C28        -1.6900    5.6970   -2.0450 ca        1 MOL      0.144569
     87 C29        -3.0890    5.7570   -1.9890 ca        1 MOL     -0.214959
     88 C30        -0.9610    6.7580   -1.4570 ca        1 MOL     -0.214959
     89 C31        -3.6980    6.9550   -1.5990 ca        1 MOL     -0.221707
     90 C32        -1.6350    7.9000   -0.9760 ca        1 MOL     -0.221707
     91 C33        -3.0040    8.0430   -1.0790 ca        1 MOL      0.336174
     92 O14        -3.6810    9.2170   -0.7340 oh        1 MOL     -0.526722
     93 H37        -2.5330    2.8500   -1.0910 hn        1 MOL      0.307143
     94 H38         0.0940    4.1850   -0.5640 h1        1 MOL      0.046912
     95 H39        -1.5810    3.8030   -3.1070 hc        1 MOL      0.074666
     96 H40        -0.2090    4.7370   -3.1200 hc        1 MOL      0.074666
     97 H41        -3.7110    4.9690   -2.4080 ha        1 MOL      0.146947
     98 H42         0.0870    6.6550   -1.2540 ha        1 MOL      0.146947
     99 H43        -4.7690    6.9510   -1.4350 ha        1 MOL      0.144894
    100 H44        -1.0880    8.6530   -0.4180 ha        1 MOL      0.144894
    101 H45        -4.6100    8.9660   -0.7490 ho        1 MOL      0.395362
    102 N10         1.8780    2.9340   -1.9460 n         1 MOL     -0.583992
    103 C34         2.9550    2.0190   -2.3470 c3        1 MOL      0.015237
    104 C35         4.1000    1.9720   -1.2880 c         1 MOL      0.488576
    105 O15         4.2280    0.9110   -0.7060 o         1 MOL     -0.380055
    106 C36         3.4810    2.2310   -3.7930 c3        1 MOL     -0.014835
    107 C37         2.2350    1.9580   -4.7000 c3        1 MOL      0.175035
    108 C38         4.7090    1.2730   -4.0670 c3        1 MOL     -0.261045
    109 C39         2.6220    1.8360   -6.1630 c3        1 MOL     -0.496258
    110 H46         2.1260    3.8290   -1.5680 hn        1 MOL      0.283508
    111 H47         2.6070    0.9850   -2.3560 h1        1 MOL      0.116194
    112 H48         3.8080    3.2260   -4.0800 hc        1 MOL      0.011189
    113 H49         1.6060    2.8480   -4.6670 hc        1 MOL      0.034200
    114 H50         1.6250    1.0690   -4.4980 hc        1 MOL      0.034200
    115 H51         4.5660    0.2610   -3.6700 hc        1 MOL      0.079739
    116 H52         4.9690    1.2330   -5.1320 hc        1 MOL      0.079739
    117 H53         5.5480    1.7770   -3.5950 hc        1 MOL      0.079739
    118 H54         3.0900    0.8630   -6.2890 hc        1 MOL      0.121507
    119 H55         1.6790    1.7940   -6.7040 hc        1 MOL      0.121507
    120 H56         3.2220    2.6600   -6.5740 hc        1 MOL      0.121507
    121 N11         4.8470    3.1290   -0.9740 n         1 MOL     -0.497161
    122 C40         5.9670    3.2580   -0.0370 c3        1 MOL     -0.003195
    123 C41         7.3090    2.5240   -0.3420 c         1 MOL      0.335664
    124 O16         8.1780    2.2510    0.5690 o         1 MOL     -0.480441
    125 C42         6.2580    4.7110    0.2650 c3        1 MOL      0.191078
    126 O17         5.4190    5.3180    1.2550 oh        1 MOL     -0.600746
    127 H57         4.5580    3.9960   -1.3960 hn        1 MOL      0.303127
    128 H58         5.5570    2.9370    0.9300 h1        1 MOL      0.164771
    129 H59         6.3150    5.3060   -0.6510 h1        1 MOL      0.027285
    130 H60         7.2450    4.7570    0.7260 h1        1 MOL      0.027285
    131 H61         5.2780    6.2250    0.9820 ho        1 MOL      0.395639
    132 N12         7.5680    2.0950   -1.5780 n         1 MOL     -0.304366
    133 C43         8.5490    1.1190   -2.0920 c3        1 MOL      0.106938
    134 C44         8.4240   -0.3430   -1.4300 c         1 MOL      0.404578
    135 O18         9.3040   -1.1560   -1.6620 o         1 MOL     -0.506442
    136 C45         9.9460    1.7250   -2.1220 c3        1 MOL     -0.261753
    137 H62         6.9300    2.4180   -2.2850 hn        1 MOL      0.230154
    138 H63         8.1700    1.0080   -3.1080 h1        1 MOL      0.059605
    139 H64        10.7070    1.1700   -2.6730 hc        1 MOL      0.091218
    140 H65         9.8670    2.6860   -2.6290 hc        1 MOL      0.091218
    141 H66        10.3450    2.0130   -1.1430 hc        1 MOL      0.091218
    142 N13         7.3840   -0.5870   -0.6250 n         1 MOL     -0.240610
    143 C46         7.1860   -1.8030    0.1750 c3        1 MOL      0.430797
    144 C47         6.2950   -2.8650   -0.4990 c         1 MOL      0.172854
    145 O19         5.4460   -2.5600   -1.3060 o         1 MOL     -0.461495
    146 C48         6.5790   -1.5410    1.5900 c3        1 MOL     -0.134180
    147 H67         6.6820    0.1360   -0.6200 hn        1 MOL      0.100657
    148 H68         8.1860   -2.2170    0.3090 h1        1 MOL     -0.018871
    149 H69         7.0190   -0.6040    1.9450 hc        1 MOL      0.021997
    150 H70         5.4910   -1.4450    1.6030 hc        1 MOL      0.021997
    151 H71         6.8560   -2.4030    2.2110 hc        1 MOL      0.021997
    152 N14         6.4750   -4.1420   -0.1420 n         1 MOL     -0.554194
    153 C49         5.7010   -5.2560   -0.7020 c3        1 MOL     -0.096271
    154 C50         5.8470   -5.5400   -2.2140 c         1 MOL      0.515313
    155 O20         5.4390   -6.6130   -2.6460 o         1 MOL     -0.546335
    156 C51         4.2040   -5.1910   -0.2940 c3        1 MOL     -0.048297
    157 C52         3.9620   -5.0740    1.2100 c3        1 MOL      0.038742
    158 C53         2.5750   -4.7750    1.5640 c         1 MOL      0.551456
    159 O21         2.2020   -3.7690    2.2320 o         1 MOL     -0.665522
    160 O22         1.7470   -5.5730    1.1180 o         1 MOL     -0.665522
    161 H72         7.1200   -4.3490    0.6120 hn        1 MOL      0.362074
    162 H73         6.0540   -6.2270   -0.3370 h1        1 MOL      0.115499
    163 H74         3.6930   -6.0750   -0.6930 hc        1 MOL      0.079094
    164 H75         3.7390   -4.3210   -0.7620 hc        1 MOL      0.079094
    165 H76         4.6150   -4.3490    1.7030 hc        1 MOL     -0.009516
    166 H77         4.2350   -5.9680    1.7650 hc        1 MOL     -0.009516
    167 N15         6.4090   -4.7320   -3.0590 n         1 MOL     -0.264919
    168 C54         6.5020   -4.8560   -4.5110 c3        1 MOL     -0.206498
    169 H78         6.8370   -3.9090   -4.9350 h1        1 MOL      0.100400
    170 H79         7.2160   -5.6400   -4.7650 h1        1 MOL      0.100400
    171 H80         5.5230   -5.1090   -4.9180 h1        1 MOL      0.100400
    172 H81         6.6520   -3.8440   -2.6600 hn        1 MOL      0.303592
    173 Ca1         1.6090   -1.1390    2.8940 Ca        1 MOL      1.802162
    174 O23         3.1650    0.7870    4.2260 oh        1 MOL     -0.848416
    175 H82         3.3080    1.6730    4.5540 ho        1 MOL      0.407002
    176 H83         3.7880    0.2430    4.7140 ho        1 MOL      0.407002
    177 O24         3.1630   -1.1560    0.7330 oh        1 MOL     -0.848416
    178 O25         3.5620   -2.0500    4.3020 oh        1 MOL     -0.848416
    179 H84         3.3690   -2.0210    0.3660 ho        1 MOL      0.407002
    180 H85         3.5430   -1.6720    5.1840 ho        1 MOL      0.407002
    181 H86         3.5780   -0.5370    0.1360 ho        1 MOL      0.407002
    182 H87         4.4000   -2.5190    4.2630 ho        1 MOL      0.407002
    183 O26         0.3170   -2.7300    4.6110 oh        1 MOL     -0.848416
    184 H88         0.1540   -2.8460    5.5360 ho        1 MOL      0.407002
    185 H89        -0.0810   -3.4970    4.1930 ho        1 MOL      0.407002
    186 O27         1.5090    1.4060    1.9720 oh        1 MOL     -0.848416
    187 H90         0.6600    1.8030    1.7940 ho        1 MOL      0.407002
    188 H91         2.1200    2.1430    1.9820 ho        1 MOL      0.407002
@<TRIPOS>BOND
     1    1    2 1   
     2    1    4 1   
     3    1    5 1   
     4    1    6 1   
     5    2    3 2   
     6    2    7 1   
     7    7    8 1   
     8    7   15 1   
     9    8    9 1   
    10    8   11 1   
    11    8   16 1   
    12    9   10 2   
    13    9   19 1   
    14   11   12 1   
    15   11   17 1   
    16   11   18 1   
    17   12   13 1   
    18   12   14 1   
    19   19   20 1   
    20   19   28 1   
    21   20   21 1   
    22   20   23 1   
    23   20   29 1   
    24   21   22 2   
    25   21   41 1   
    26   23   24 1   
    27   23   30 1   
    28   23   31 1   
    29   24   25 1   
    30   24   32 1   
    31   24   33 1   
    32   25   26 1   
    33   25   34 1   
    34   25   35 1   
    35   26   27 1   
    36   26   36 1   
    37   26   37 1   
    38   27   38 1   
    39   27   39 1   
    40   27   40 1   
    41   41   42 1   
    42   41   49 1   
    43   42   43 1   
    44   42   45 1   
    45   42   50 1   
    46   43   44 2   
    47   43   53 1   
    48   45   46 1   
    49   45   51 1   
    50   45   52 1   
    51   46   47 1   
    52   46   48 1   
    53   53   54 1   
    54   53   57 1   
    55   54   55 1   
    56   54   58 1   
    57   54   59 1   
    58   55   56 2   
    59   55   60 1   
    60   60   61 1   
    61   60   68 1   
    62   61   62 1   
    63   61   64 1   
    64   61   69 1   
    65   62   63 2   
    66   62   74 1   
    67   64   65 1   
    68   64   70 1   
    69   64   71 1   
    70   65   66 1   
    71   65   67 2   
    72   66   72 1   
    73   66   73 1   
    74   74   75 1   
    75   74   78 1   
    76   75   76 1   
    77   75   79 1   
    78   75   80 1   
    79   76   77 2   
    80   76   81 1   
    81   81   82 1   
    82   81   93 1   
    83   82   83 1   
    84   82   85 1   
    85   82   94 1   
    86   83   84 2   
    87   83  102 1   
    88   85   86 1   
    89   85   95 1   
    90   85   96 1   
    91   86   87 ar  
    92   86   88 ar  
    93   87   89 ar  
    94   87   97 1   
    95   88   90 ar  
    96   88   98 1   
    97   89   91 ar  
    98   89   99 1   
    99   90   91 ar  
   100   90  100 1   
   101   91   92 1   
   102   92  101 1   
   103  102  103 1   
   104  102  110 1   
   105  103  104 1   
   106  103  106 1   
   107  103  111 1   
   108  104  105 2   
   109  104  121 1   
   110  106  107 1   
   111  106  108 1   
   112  106  112 1   
   113  107  109 1   
   114  107  113 1   
   115  107  114 1   
   116  108  115 1   
   117  108  116 1   
   118  108  117 1   
   119  109  118 1   
   120  109  119 1   
   121  109  120 1   
   122  121  122 1   
   123  121  127 1   
   124  122  123 1   
   125  122  125 1   
   126  122  128 1   
   127  123  124 2   
   128  123  132 1   
   129  125  126 1   
   130  125  129 1   
   131  125  130 1   
   132  126  131 1   
   133  132  133 1   
   134  132  137 1   
   135  133  134 1   
   136  133  136 1   
   137  133  138 1   
   138  134  135 2   
   139  134  142 1   
   140  136  139 1   
   141  136  140 1   
   142  136  141 1   
   143  142  143 1   
   144  142  147 1   
   145  143  144 1   
   146  143  146 1   
   147  143  148 1   
   148  144  145 2   
   149  144  152 1   
   150  146  149 1   
   151  146  150 1   
   152  146  151 1   
   153  152  153 1   
   154  152  161 1   
   155  153  154 1   
   156  153  156 1   
   157  153  162 1   
   158  154  155 2   
   159  154  167 1   
   160  156  157 1   
   161  156  163 1   
   162  156  164 1   
   163  157  158 1   
   164  157  165 1   
   165  157  166 1   
   166  158  159 1   
   167  158  160 1   
   168  167  168 1   
   169  167  172 1   
   170  168  169 1   
   171  168  170 1   
   172  168  171 1   
   173  174  175 1   
   174  174  176 1   
   175  177  179 1   
   176  177  181 1   
   177  178  180 1   
   178  178  182 1   
   179  183  184 1   
   180  183  185 1   
   181  186  187 1   
   182  186  188 1   
@<TRIPOS>SUBSTRUCTURE
     1 MOL         1 TEMP              0 ****  ****    0 ROOT
