@<TRIPOS>MOLECULE
MOL
  192   187     1     0     0
SMALL
resp


@<TRIPOS>ATOM
      1 C1         -6.0150   -2.1820    3.4690 c3        1 MOL     -0.055968
      2 C2         -5.0230   -2.6100    2.4040 c         1 MOL      0.476020
      3 O1         -4.3240   -1.6530    2.0270 o         1 MOL     -0.459434
      4 H1         -6.9300   -1.8300    2.9910 hc        1 MOL     -0.003083
      5 H2         -6.2450   -3.0310    4.1130 hc        1 MOL     -0.003083
      6 H3         -5.5850   -1.3780    4.0660 hc        1 MOL     -0.003083
      7 N1         -5.1350   -3.7680    1.7330 n         1 MOL     -0.543442
      8 C3         -4.2810   -4.2870    0.7580 c3        1 MOL      0.000222
      9 C4         -2.7950   -4.2930    1.0970 c         1 MOL      0.686396
     10 O2         -2.0020   -3.9450    0.2410 o         1 MOL     -0.511140
     11 C5         -4.5230   -3.6170   -0.5970 c3        1 MOL     -0.582698
     12 C6         -5.9640   -3.0880   -0.7630 c         1 MOL      0.835723
     13 O3         -6.2410   -1.8640   -0.5150 o         1 MOL     -0.656208
     14 O4         -6.8150   -3.9260   -1.1190 o         1 MOL     -0.656208
     15 H4         -6.0030   -4.2600    1.8250 hn        1 MOL      0.284149
     16 H5         -4.6000   -5.3230    0.6900 h1        1 MOL      0.106757
     17 H6         -4.3050   -4.2870   -1.4240 hc        1 MOL      0.180308
     18 H7         -3.8610   -2.7620   -0.7530 hc        1 MOL      0.180308
     19 N2         -2.4090   -4.5210    2.4000 n         1 MOL     -0.667053
     20 C7         -0.9770   -4.4710    2.8330 c3        1 MOL     -0.003533
     21 C8         -0.1760   -5.7580    2.5010 c         1 MOL      0.561230
     22 O5         -0.5860   -6.7820    2.9450 o         1 MOL     -0.613610
     23 C9         -0.9800   -4.1270    4.3610 c3        1 MOL      0.282473
     24 C10        -1.5810   -2.7000    4.6240 c3        1 MOL      0.126210
     25 C11         0.3970   -4.1180    4.9660 c3        1 MOL     -0.280718
     26 C12        -1.6990   -2.2820    6.1420 c3        1 MOL     -0.467689
     27 H8         -3.0790   -4.7910    3.0950 hn        1 MOL      0.343052
     28 H9         -0.4820   -3.6130    2.3760 h1        1 MOL      0.142221
     29 H10        -1.6150   -4.8910    4.8070 hc        1 MOL     -0.060746
     30 H11        -2.5980   -2.8350    4.2380 hc        1 MOL      0.009132
     31 H12        -1.0250   -1.9880    4.0040 hc        1 MOL      0.009132
     32 H13         1.0500   -3.3870    4.5020 hc        1 MOL      0.048116
     33 H14         0.2630   -3.9910    6.0380 hc        1 MOL      0.048116
     34 H15         0.7520   -5.1520    4.9270 hc        1 MOL      0.048116
     35 H16        -0.7400   -1.8670    6.4460 hc        1 MOL      0.114868
     36 H17        -2.4270   -1.4740    6.1320 hc        1 MOL      0.114868
     37 H18        -2.0450   -3.0870    6.7910 hc        1 MOL      0.114868
     38 N3          0.9160   -5.7710    1.7890 n         1 MOL     -0.334187
     39 C13         1.5540   -4.7830    1.0030 c3        1 MOL     -0.014722
     40 C14         2.2050   -5.4870   -0.2060 c         1 MOL      0.543886
     41 O6          2.3200   -6.6990   -0.1840 o         1 MOL     -0.535323
     42 C15         2.6610   -4.2080    1.8700 c3        1 MOL     -0.344110
     43 C16         3.3330   -3.0250    1.0790 c         1 MOL      0.784322
     44 O7          4.3250   -3.2280    0.3570 o         1 MOL     -0.661744
     45 O8          2.8900   -1.9070    1.2560 o         1 MOL     -0.661744
     46 H19         1.3050   -6.6930    1.6700 hn        1 MOL      0.247904
     47 H20         0.8060   -4.0710    0.6360 h1        1 MOL      0.051157
     48 H21         3.4400   -4.9230    2.1150 hc        1 MOL      0.083323
     49 H22         2.2000   -3.7180    2.7230 hc        1 MOL      0.083323
     50 N4          2.5520   -4.7650   -1.3040 n         1 MOL     -0.354958
     51 C17         3.2160   -5.4030   -2.5190 c3        1 MOL     -0.206029
     52 C18         4.4930   -4.7460   -2.9980 c         1 MOL      0.788774
     53 O9          5.1940   -5.3450   -3.7470 o         1 MOL     -0.652384
     54 H23         2.2910   -3.7800   -1.2870 hn        1 MOL      0.287205
     55 H24         2.4460   -5.2750   -3.2790 h1        1 MOL      0.097038
     56 H25         3.4530   -6.4560   -2.3610 h1        1 MOL      0.097038
     57 N5          4.8130   -3.6120   -2.4410 n         1 MOL     -0.605076
     58 C19         5.9710   -2.8540   -2.9630 c3        1 MOL      0.174928
     59 C20         7.1150   -2.4850   -1.9910 c         1 MOL      0.308124
     60 O10         8.2780   -2.2450   -2.3830 o         1 MOL     -0.580597
     61 C21         5.4210   -1.6710   -3.7350 c3        1 MOL     -0.418583
     62 C22         4.4080   -0.8630   -2.9500 c         1 MOL      0.827931
     63 O11         4.8020   -0.0120   -2.1720 o         1 MOL     -0.704161
     64 O12         3.1930   -1.0890   -3.1050 o         1 MOL     -0.704161
     65 H26         4.2470   -3.2270   -1.6930 hn        1 MOL      0.356473
     66 H27         6.4220   -3.4220   -3.7760 h1        1 MOL      0.103557
     67 H28         5.0260   -2.0280   -4.6800 hc        1 MOL      0.086791
     68 H29         6.2460   -0.9800   -3.9380 hc        1 MOL      0.086791
     69 N6          6.8760   -2.3900   -0.7160 n         1 MOL      0.004977
     70 C23         7.7540   -1.8790    0.3790 c3        1 MOL     -0.273798
     71 C24         8.1950   -0.3900    0.2540 c         1 MOL      0.670186
     72 O13         9.0190    0.0340    1.0200 o         1 MOL     -0.633446
     73 H30         5.9250   -2.5940   -0.4020 hn        1 MOL      0.098165
     74 H31         8.6560   -2.4770    0.4930 h1        1 MOL      0.100732
     75 H32         7.2060   -1.9810    1.3060 h1        1 MOL      0.100732
     76 N7          7.7050    0.2910   -0.7410 n         1 MOL     -0.061733
     77 C25         8.0440    1.6820   -1.0740 c3        1 MOL      0.127634
     78 C26         7.9520    2.6200    0.2040 c         1 MOL      0.355018
     79 O14         8.7720    3.5530    0.3680 o         1 MOL     -0.528770
     80 C27         9.3670    1.7190   -1.9100 c3        1 MOL      0.021385
     81 C28         9.3010    0.7860   -3.1300 c3        1 MOL     -0.432739
     82 C29        10.2400    1.4360   -4.2020 c         1 MOL      0.841756
     83 N8         11.4870    1.5510   -4.0100 n         1 MOL     -0.851144
     84 O15         9.8710    1.7140   -5.2970 o         1 MOL     -0.624662
     85 H33         7.0960   -0.2430   -1.3490 hn        1 MOL      0.071350
     86 H34         7.2400    1.9760   -1.7560 h1        1 MOL      0.079418
     87 H35        10.2240    1.4350   -1.2890 hc        1 MOL      0.001484
     88 H36         9.4750    2.7220   -2.3170 hc        1 MOL      0.001484
     89 H37         8.2980    0.7500   -3.5500 hc        1 MOL      0.130088
     90 H38         9.7120   -0.1720   -2.8050 hc        1 MOL      0.130088
     91 H39        11.8550    1.3740   -3.0880 hn        1 MOL      0.353988
     92 H40        12.0780    1.9890   -4.7020 hn        1 MOL      0.353988
     93 N9          7.0530    2.3240    1.1580 n         1 MOL     -0.342106
     94 C30         6.7260    3.0220    2.4320 c3        1 MOL      0.087508
     95 C31         5.2270    3.2410    2.7330 c         1 MOL      0.407295
     96 O16         4.8590    4.0140    3.5950 o         1 MOL     -0.545822
     97 C32         7.4380    2.3090    3.5910 c3        1 MOL      0.231302
     98 C33         6.9510    0.8230    3.7250 c3        1 MOL     -0.325190
     99 C34         8.9810    2.2940    3.5860 c3        1 MOL     -0.325190
    100 H41         6.5720    1.4600    0.9270 hn        1 MOL      0.194676
    101 H42         7.1590    4.0280    2.4460 h1        1 MOL      0.079067
    102 H43         7.1290    2.7820    4.5200 hc        1 MOL     -0.032524
    103 H44         7.0720    0.2300    2.8160 hc        1 MOL      0.076852
    104 H45         7.4310    0.2880    4.5380 hc        1 MOL      0.076852
    105 H46         5.8670    0.7710    3.7590 hc        1 MOL      0.076852
    106 H47         9.3600    3.3110    3.4980 hc        1 MOL      0.076852
    107 H48         9.3800    1.8680    4.5100 hc        1 MOL      0.076852
    108 H49         9.3850    1.7050    2.7540 hc        1 MOL      0.076852
    109 N10         4.3530    2.5790    1.9690 n         1 MOL     -0.381021
    110 C35         2.8700    2.5530    2.1340 c3        1 MOL      0.423874
    111 C36         2.1070    2.6580    0.8090 c         1 MOL      0.331452
    112 O17         2.7650    2.6370   -0.2260 o         1 MOL     -0.475703
    113 C37         2.6020    1.2150    2.8480 c3        1 MOL     -0.056311
    114 C38         1.1700    0.6670    2.7210 c         1 MOL      0.491848
    115 N11         0.8770   -0.4690    2.1340 n         1 MOL     -0.642614
    116 O18         0.2790    1.4110    3.1210 o         1 MOL     -0.573059
    117 H50         4.7640    2.1760    1.1360 hn        1 MOL      0.202655
    118 H51         2.4410    3.2890    2.8220 h1        1 MOL     -0.012263
    119 H52         2.7670    1.4610    3.8950 hc        1 MOL      0.009401
    120 H53         3.3270    0.4870    2.4800 hc        1 MOL      0.009401
    121 H54         1.6320   -1.0170    1.7660 hn        1 MOL      0.328369
    122 H55        -0.0840   -0.6840    1.8850 hn        1 MOL      0.328369
    123 N12         0.7560    2.7800    0.8290 n         1 MOL     -0.498558
    124 C39        -0.1940    2.8370   -0.3220 c3        1 MOL      0.377033
    125 C40        -1.5350    3.5850    0.0440 c         1 MOL      0.258812
    126 O19        -2.0160    3.3800    1.1710 o         1 MOL     -0.511440
    127 C41        -0.5340    1.3880   -0.7780 c3        1 MOL     -0.381314
    128 C42        -1.6790    1.2540   -1.6410 ca        1 MOL      0.173677
    129 C43        -1.6220    1.8390   -2.9360 ca        1 MOL     -0.255489
    130 C44        -2.8930    0.6070   -1.3230 ca        1 MOL     -0.255489
    131 C45        -2.7640    1.8610   -3.7960 ca        1 MOL     -0.166533
    132 C46        -4.0470    0.5690   -2.1650 ca        1 MOL     -0.166533
    133 C47        -3.9790    1.2420   -3.4740 ca        1 MOL      0.186977
    134 O20        -4.9740    1.1460   -4.4070 oh        1 MOL     -0.393900
    135 H56         0.3270    2.7070    1.7380 hn        1 MOL      0.283039
    136 H57         0.3190    3.3580   -1.1290 h1        1 MOL     -0.002994
    137 H58        -0.7720    0.8130    0.1160 hc        1 MOL      0.169366
    138 H59         0.4120    1.0030   -1.1680 hc        1 MOL      0.169366
    139 H60        -0.6650    2.2100   -3.2660 ha        1 MOL      0.154217
    140 H61        -2.9970    0.1220   -0.3580 ha        1 MOL      0.154217
    141 H62        -2.6690    2.2720   -4.7910 ha        1 MOL      0.110203
    142 H63        -4.9210    0.0220   -1.8730 ha        1 MOL      0.110203
    143 H64        -4.6100    1.6230   -5.1580 ho        1 MOL      0.316894
    144 N13        -2.0470    4.4010   -0.9070 n         1 MOL     -0.260683
    145 C48        -3.1860    5.2590   -0.5430 c3        1 MOL      0.023325
    146 C49        -4.2380    5.0920   -1.6040 c         1 MOL      0.517716
    147 O21        -4.1050    5.3890   -2.8060 o         1 MOL     -0.587568
    148 C50        -2.6910    6.6640   -0.3900 c3        1 MOL      0.388505
    149 C51        -1.6870    6.8440    0.8210 c3        1 MOL     -0.170595
    150 C52        -1.4260    8.3760    1.0540 c         1 MOL      0.633896
    151 O22        -0.9950    8.9840    0.0460 o         1 MOL     -0.661688
    152 O23        -1.8680    8.9450    2.0720 o         1 MOL     -0.661688
    153 H65        -1.5280    4.4920   -1.7590 hn        1 MOL      0.248752
    154 H66        -3.5500    4.9850    0.4540 h1        1 MOL      0.102688
    155 H67        -3.5540    7.3270   -0.3870 hc        1 MOL     -0.087636
    156 H68        -2.1250    6.8720   -1.3010 hc        1 MOL     -0.087636
    157 H69        -0.6940    6.4310    0.6540 hc        1 MOL      0.003593
    158 H70        -2.1230    6.4010    1.7230 hc        1 MOL      0.003593
    159 N14        -5.4320    4.6280   -1.2550 n         1 MOL     -0.561196
    160 C53        -5.9450    3.8900   -0.0590 c3        1 MOL      0.221516
    161 C54        -5.9600    4.7780    1.1980 c         1 MOL      0.390303
    162 O24        -6.1510    5.9870    1.1650 o         1 MOL     -0.514203
    163 C55        -7.2940    3.2680   -0.3960 c3        1 MOL     -0.270611
    164 C56        -7.3240    2.2990   -1.5400 c3        1 MOL     -0.325315
    165 C57        -8.6670    1.5450   -1.6470 c         1 MOL      0.987125
    166 O25        -9.0000    0.5860   -0.9570 o         1 MOL     -0.811007
    167 O26        -9.5300    2.0430   -2.4260 o         1 MOL     -0.811007
    168 H71        -6.0230    4.6010   -2.0750 hn        1 MOL      0.319161
    169 H72        -5.2690    3.0470    0.0910 h1        1 MOL      0.117111
    170 H73        -7.9850    4.0480   -0.7180 hc        1 MOL      0.072623
    171 H74        -7.5580    2.7990    0.5470 hc        1 MOL      0.072623
    172 H75        -6.5780    1.5090   -1.4930 hc        1 MOL      0.095669
    173 H76        -7.2140    2.7380   -2.5330 hc        1 MOL      0.095669
    174 N15        -5.6710    4.0940    2.2960 n         1 MOL     -0.207700
    175 C58        -5.5030    4.6330    3.7120 c3        1 MOL     -0.423122
    176 H77        -4.4510    4.8570    3.8920 h1        1 MOL      0.164785
    177 H78        -6.0920    5.5430    3.8270 h1        1 MOL      0.164785
    178 H79        -5.8430    3.8860    4.4280 h1        1 MOL      0.164785
    179 H80        -5.3250    3.1610    2.1380 hn        1 MOL      0.225721
    180 Ca1        -8.8960   -1.9720   -0.9700 Ca        1 MOL      1.537892
    181 O27       -11.0230   -1.8380   -2.6040 oh        1 MOL     -0.828153
    182 H81       -11.5560   -2.6140   -2.7700 ho        1 MOL      0.385574
    183 H82       -11.5900   -1.1030   -2.8590 ho        1 MOL      0.385574
    184 O28       -10.0750   -4.7780   -0.3630 oh        1 MOL     -0.828153
    185 H83       -10.8310   -4.9740    0.1760 ho        1 MOL      0.385574
    186 H84       -10.3960   -4.8580   -1.2650 ho        1 MOL      0.385574
    187 O29        -9.2000   -4.1680   -2.9180 oh        1 MOL     -0.828153
    188 H85        -8.3810   -4.6600   -2.9900 ho        1 MOL      0.385574
    189 H86        -9.6950   -4.4020   -3.7020 ho        1 MOL      0.385574
    190 O30        -7.8180   -1.0960   -3.3000 oh        1 MOL     -0.828153
    191 H87        -8.2170   -0.4400   -3.8680 ho        1 MOL      0.385574
    192 H88        -7.0350   -1.3790   -3.7720 ho        1 MOL      0.385574
@<TRIPOS>BOND
     1    1    2 1   
     2    1    4 1   
     3    1    5 1   
     4    1    6 1   
     5    2    3 2   
     6    2    7 1   
     7    7    8 1   
     8    7   15 1   
     9    8    9 1   
    10    8   11 1   
    11    8   16 1   
    12    9   10 2   
    13    9   19 1   
    14   11   12 1   
    15   11   17 1   
    16   11   18 1   
    17   12   13 1   
    18   12   14 1   
    19   19   20 1   
    20   19   27 1   
    21   20   21 1   
    22   20   23 1   
    23   20   28 1   
    24   21   22 2   
    25   21   38 1   
    26   23   24 1   
    27   23   25 1   
    28   23   29 1   
    29   24   26 1   
    30   24   30 1   
    31   24   31 1   
    32   25   32 1   
    33   25   33 1   
    34   25   34 1   
    35   26   35 1   
    36   26   36 1   
    37   26   37 1   
    38   38   39 1   
    39   38   46 1   
    40   39   40 1   
    41   39   42 1   
    42   39   47 1   
    43   40   41 2   
    44   40   50 1   
    45   42   43 1   
    46   42   48 1   
    47   42   49 1   
    48   43   44 1   
    49   43   45 1   
    50   50   51 1   
    51   50   54 1   
    52   51   52 1   
    53   51   55 1   
    54   51   56 1   
    55   52   53 2   
    56   52   57 1   
    57   57   58 1   
    58   57   65 1   
    59   58   59 1   
    60   58   61 1   
    61   58   66 1   
    62   59   60 2   
    63   59   69 1   
    64   61   62 1   
    65   61   67 1   
    66   61   68 1   
    67   62   63 1   
    68   62   64 1   
    69   69   70 1   
    70   69   73 1   
    71   70   71 1   
    72   70   74 1   
    73   70   75 1   
    74   71   72 2   
    75   71   76 1   
    76   76   77 1   
    77   76   85 1   
    78   77   78 1   
    79   77   80 1   
    80   77   86 1   
    81   78   79 2   
    82   78   93 1   
    83   80   81 1   
    84   80   87 1   
    85   80   88 1   
    86   81   82 1   
    87   81   89 1   
    88   81   90 1   
    89   82   83 1   
    90   82   84 2   
    91   83   91 1   
    92   83   92 1   
    93   93   94 1   
    94   93  100 1   
    95   94   95 1   
    96   94   97 1   
    97   94  101 1   
    98   95   96 2   
    99   95  109 1   
   100   97   98 1   
   101   97   99 1   
   102   97  102 1   
   103   98  103 1   
   104   98  104 1   
   105   98  105 1   
   106   99  106 1   
   107   99  107 1   
   108   99  108 1   
   109  109  110 1   
   110  109  117 1   
   111  110  111 1   
   112  110  113 1   
   113  110  118 1   
   114  111  112 2   
   115  111  123 1   
   116  113  114 1   
   117  113  119 1   
   118  113  120 1   
   119  114  115 1   
   120  114  116 2   
   121  115  121 1   
   122  115  122 1   
   123  123  124 1   
   124  123  135 1   
   125  124  125 1   
   126  124  127 1   
   127  124  136 1   
   128  125  126 2   
   129  125  144 1   
   130  127  128 1   
   131  127  137 1   
   132  127  138 1   
   133  128  129 ar  
   134  128  130 ar  
   135  129  131 ar  
   136  129  139 1   
   137  130  132 ar  
   138  130  140 1   
   139  131  133 ar  
   140  131  141 1   
   141  132  133 ar  
   142  132  142 1   
   143  133  134 1   
   144  134  143 1   
   145  144  145 1   
   146  144  153 1   
   147  145  146 1   
   148  145  148 1   
   149  145  154 1   
   150  146  147 2   
   151  146  159 1   
   152  148  149 1   
   153  148  155 1   
   154  148  156 1   
   155  149  150 1   
   156  149  157 1   
   157  149  158 1   
   158  150  151 1   
   159  150  152 1   
   160  159  160 1   
   161  159  168 1   
   162  160  161 1   
   163  160  163 1   
   164  160  169 1   
   165  161  162 2   
   166  161  174 1   
   167  163  164 1   
   168  163  170 1   
   169  163  171 1   
   170  164  165 1   
   171  164  172 1   
   172  164  173 1   
   173  165  166 1   
   174  165  167 1   
   175  174  175 1   
   176  174  179 1   
   177  175  176 1   
   178  175  177 1   
   179  175  178 1   
   180  181  182 1   
   181  181  183 1   
   182  184  185 1   
   183  184  186 1   
   184  187  188 1   
   185  187  189 1   
   186  190  191 1   
   187  190  192 1   
@<TRIPOS>SUBSTRUCTURE
     1 MOL         1 TEMP              0 ****  ****    0 ROOT
