@<TRIPOS>MOLECULE
MOL
  181   177     1     0     0
SMALL
resp


@<TRIPOS>ATOM
      1 C1         10.6040    7.0740   -1.6160 c3        1 MOL     -0.336252
      2 C2          9.6680    6.2630   -0.7280 c         1 MOL      0.744746
      3 O1          8.9350    6.8460    0.0320 o         1 MOL     -0.575464
      4 H1         10.3840    8.1360   -1.5010 hc        1 MOL      0.082146
      5 H2         11.6370    6.8840   -1.3260 hc        1 MOL      0.082146
      6 H3         10.4600    6.7840   -2.6570 hc        1 MOL      0.082146
      7 N1          9.7390    4.9120   -0.7710 n         1 MOL     -0.758444
      8 C3         10.5300    4.0680   -1.7400 c3        1 MOL      0.308638
      9 C4         11.4560    3.0900   -1.0410 c         1 MOL      0.545206
     10 O2         12.3980    2.6110   -1.6400 o         1 MOL     -0.573898
     11 C5          9.5480    3.3460   -2.6910 c3        1 MOL     -0.333005
     12 C6          8.3930    2.5270   -2.0970 c         1 MOL      0.740744
     13 O3          8.1960    2.3350   -0.8490 o         1 MOL     -0.723485
     14 O4          7.5690    1.9610   -2.9410 o         1 MOL     -0.723485
     15 H4          9.0640    4.4760   -0.1470 hn        1 MOL      0.409856
     16 H5         11.1970    4.7100   -2.3100 h1        1 MOL      0.007503
     17 H6         10.1650    2.7480   -3.3510 hc        1 MOL      0.083858
     18 H7          9.0680    4.0860   -3.3430 hc        1 MOL      0.083858
     19 N2         11.2550    2.8900    0.2560 n         1 MOL     -0.461808
     20 C7         12.1370    2.0130    0.9830 c3        1 MOL      0.044209
     21 C8         11.3390    0.7700    1.4600 c         1 MOL      0.526664
     22 O5         11.9610   -0.2820    1.8020 o         1 MOL     -0.615002
     23 C9         12.6320    2.8490    2.1360 c3        1 MOL     -0.200031
     24 H8         10.5150    3.4520    0.6760 hn        1 MOL      0.282398
     25 H9         13.0320    1.7290    0.4340 h1        1 MOL      0.119925
     26 H10        11.8380    3.2930    2.7390 hc        1 MOL      0.061337
     27 H11        13.2570    2.3250    2.8610 hc        1 MOL      0.061337
     28 H12        13.2400    3.6790    1.7910 hc        1 MOL      0.061337
     29 N3         10.0230    0.7770    1.5710 n         1 MOL     -0.175545
     30 C10         9.1740   -0.2990    2.0510 c3        1 MOL     -0.170591
     31 C11         8.7270   -1.1860    0.8930 c         1 MOL      0.478221
     32 O6          8.4430   -0.6710   -0.2010 o         1 MOL     -0.492901
     33 C12         8.0580    0.2460    2.9120 c3        1 MOL     -0.238872
     34 C13         7.1560    1.3110    2.2930 c         1 MOL      0.689481
     35 O7          7.1180    2.4820    2.7050 o         1 MOL     -0.683523
     36 O8          6.4220    1.0270    1.3320 o         1 MOL     -0.683523
     37 H13         9.4810    1.4900    1.1000 hn        1 MOL      0.217438
     38 H14         9.6930   -0.9940    2.7030 h1        1 MOL      0.105171
     39 H15         8.4870    0.6100    3.8440 hc        1 MOL      0.070320
     40 H16         7.4760   -0.6400    3.1900 hc        1 MOL      0.070320
     41 N4          8.6010   -2.5010    1.1900 n         1 MOL     -0.256995
     42 C14         8.2030   -3.5360    0.2270 c3        1 MOL     -0.445087
     43 C15         6.8070   -3.2970   -0.4100 c         1 MOL      0.932782
     44 O9          6.0980   -2.2360   -0.4580 o         1 MOL     -0.708607
     45 H17         8.7560   -2.8060    2.1490 hn        1 MOL      0.285701
     46 H18         8.1340   -4.4930    0.7540 h1        1 MOL      0.182775
     47 H19         8.9140   -3.5030   -0.5990 h1        1 MOL      0.182775
     48 N5          6.2570   -4.3810   -0.9520 n         1 MOL     -0.732132
     49 C16         4.8960   -4.3560   -1.6670 c3        1 MOL      0.408295
     50 C17         3.7390   -4.6420   -0.6600 c         1 MOL      0.629896
     51 O10         4.0140   -5.2840    0.4020 o         1 MOL     -0.560113
     52 C18         4.8910   -5.0890   -2.9920 c3        1 MOL     -0.679028
     53 C19         5.6080   -4.3720   -4.0610 c         1 MOL      0.938369
     54 N6          5.1480   -4.5620   -5.2900 n         1 MOL     -0.904262
     55 O11         6.5340   -3.5730   -3.9110 o         1 MOL     -0.657487
     56 H20         6.7210   -5.2750   -0.9480 hn        1 MOL      0.328230
     57 H21         4.6890   -3.3160   -1.9250 h1        1 MOL      0.024671
     58 H22         3.8440   -5.1100   -3.2970 hc        1 MOL      0.166336
     59 H23         5.3800   -6.0530   -2.8740 hc        1 MOL      0.166336
     60 H24         4.3550   -5.1680   -5.4630 hn        1 MOL      0.397897
     61 H25         5.6640   -4.2200   -6.0760 hn        1 MOL      0.397897
     62 N7          2.5080   -4.2210   -0.9220 n         1 MOL     -0.645406
     63 C20         1.4320   -4.2700    0.1160 c3        1 MOL      0.062075
     64 C21         1.5550   -3.0400    1.0350 c         1 MOL      0.612212
     65 O12         2.5560   -2.2990    1.0170 o         1 MOL     -0.531703
     66 H26         2.2840   -3.7350   -1.7860 hn        1 MOL      0.350947
     67 H27         1.4760   -5.2010    0.6870 h1        1 MOL      0.090298
     68 H28         0.4890   -4.2420   -0.4280 h1        1 MOL      0.090298
     69 N8          0.5260   -2.7980    1.8690 n         1 MOL     -0.603647
     70 C22        -0.5370   -3.7970    2.2800 c3        1 MOL     -0.013329
     71 C23        -1.9560   -3.2420    2.3000 c         1 MOL      0.508951
     72 O13        -2.9020   -3.9370    2.4980 o         1 MOL     -0.562642
     73 C24        -0.1360   -4.2920    3.6890 c3        1 MOL      0.286935
     74 C25         1.1540   -5.1770    3.7990 c3        1 MOL     -0.338103
     75 O14        -0.1220   -3.2200    4.6000 oh        1 MOL     -0.578959
     76 H29         0.5470   -1.9890    2.4850 hn        1 MOL      0.384892
     77 H30        -0.6250   -4.7170    1.7000 h1        1 MOL      0.084941
     78 H31        -0.9630   -4.9210    4.0180 h1        1 MOL      0.004133
     79 H32        -0.3250   -3.7010    5.4120 ho        1 MOL      0.394624
     80 H33         1.1810   -6.0780    3.1870 hc        1 MOL      0.093674
     81 H34         2.0260   -4.5540    3.6050 hc        1 MOL      0.093674
     82 H35         1.3800   -5.5890    4.7880 hc        1 MOL      0.093674
     83 N9         -2.0640   -2.0200    1.9910 n         1 MOL     -0.231976
     84 C26        -3.1820   -1.1460    2.1020 c3        1 MOL      0.026696
     85 C27        -3.3760   -0.4230    0.8240 c         1 MOL      0.496253
     86 O15        -2.6090    0.4530    0.4560 o         1 MOL     -0.563384
     87 C28        -3.1090   -0.1290    3.3020 c3        1 MOL      0.002572
     88 C29        -2.6320   -0.7640    4.5620 c3        1 MOL      0.160541
     89 C30        -4.4990    0.6490    3.3090 c3        1 MOL     -0.072891
     90 C31        -2.6510    0.1740    5.7630 c3        1 MOL     -0.249521
     91 H36        -1.2270   -1.4880    1.7970 hn        1 MOL      0.157744
     92 H37        -4.0400   -1.8150    2.1500 h1        1 MOL      0.069059
     93 H38        -2.3730    0.6310    3.0300 hc        1 MOL      0.006445
     94 H39        -1.6510   -1.2270    4.5250 hc        1 MOL     -0.034115
     95 H40        -3.2990   -1.5780    4.8350 hc        1 MOL     -0.034115
     96 H41        -4.5410    1.3000    4.1850 hc        1 MOL      0.049810
     97 H42        -4.7260    1.2010    2.4000 hc        1 MOL      0.049810
     98 H43        -5.3120   -0.0750    3.3060 hc        1 MOL      0.049810
     99 H44        -2.1880    1.1290    5.5070 hc        1 MOL      0.055483
    100 H45        -3.7120    0.2910    5.9870 hc        1 MOL      0.055483
    101 H46        -2.1190   -0.2110    6.6210 hc        1 MOL      0.055483
    102 N10        -4.5610   -0.5860    0.1650 n         1 MOL     -0.373192
    103 C32        -5.7570   -1.3980    0.4400 c3        1 MOL     -0.008346
    104 C33        -7.0470   -0.7120   -0.1960 c         1 MOL      0.479464
    105 O16        -6.9030    0.4330   -0.6920 o         1 MOL     -0.451811
    106 C34        -5.6030   -2.8880   -0.0180 c3        1 MOL     -0.229700
    107 C35        -5.0440   -3.1120   -1.4330 c         1 MOL      0.739628
    108 O17        -4.4620   -4.1730   -1.5990 o         1 MOL     -0.730699
    109 O18        -5.3140   -2.3280   -2.3930 o         1 MOL     -0.730699
    110 H47        -4.7110    0.2590   -0.3710 hn        1 MOL      0.272801
    111 H48        -5.9760   -1.4290    1.5070 h1        1 MOL      0.063899
    112 H49        -6.5390   -3.4490    0.0440 hc        1 MOL      0.044457
    113 H50        -4.8070   -3.3260    0.5860 hc        1 MOL      0.044457
    114 N11        -8.2170   -1.3850   -0.2400 n         1 MOL     -0.501825
    115 C36        -9.4540   -0.8710   -0.8070 c3        1 MOL      0.400762
    116 C37       -10.3940   -0.0980    0.1770 c         1 MOL      0.229865
    117 O19       -10.6260   -0.5070    1.3290 o         1 MOL     -0.501503
    118 C38       -10.1640   -2.1020   -1.4610 c3        1 MOL     -0.260336
    119 C39       -11.3690   -1.7020   -2.2980 ca        1 MOL      0.147110
    120 C40       -11.1960   -1.3910   -3.6380 ca        1 MOL     -0.191814
    121 C41       -12.6130   -1.6490   -1.7700 ca        1 MOL     -0.191814
    122 C42       -12.2970   -1.0570   -4.4670 ca        1 MOL     -0.089112
    123 C43       -13.7470   -1.2540   -2.5010 ca        1 MOL     -0.089112
    124 C44       -13.5980   -1.0180   -3.8800 ca        1 MOL     -0.172165
    125 H51        -8.2180   -2.2690    0.2470 hn        1 MOL      0.289079
    126 H52        -9.1850   -0.0990   -1.5280 h1        1 MOL      0.011728
    127 H53       -10.5250   -2.7230   -0.6480 hc        1 MOL      0.089957
    128 H54        -9.4230   -2.6670   -2.0300 hc        1 MOL      0.089957
    129 H55       -10.2060   -1.3750   -4.0910 ha        1 MOL      0.131480
    130 H56       -12.7860   -1.7930   -0.7130 ha        1 MOL      0.131480
    131 H57       -12.1700   -0.8660   -5.5270 ha        1 MOL      0.104271
    132 H58       -14.7160   -1.2150   -2.0230 ha        1 MOL      0.104271
    133 H59       -14.4440   -0.7840   -4.5110 ha        1 MOL      0.105482
    134 N12       -11.1470    0.8850   -0.2740 n         1 MOL     -0.029465
    135 C45       -10.8930    1.7800   -1.3650 c3        1 MOL      0.340420
    136 C46        -9.6660    2.6520   -1.1850 c         1 MOL      0.192520
    137 O20        -8.8520    2.6400   -2.1080 o         1 MOL     -0.501759
    138 C47       -12.1310    2.6710   -1.4860 c3        1 MOL      0.031292
    139 C48       -13.2070    1.9970   -0.6520 c3        1 MOL      0.008354
    140 C49       -12.4020    1.1930    0.3750 c3        1 MOL     -0.086814
    141 H60       -10.8110    1.2900   -2.3460 h1        1 MOL     -0.033229
    142 H61       -11.8800    3.6200   -1.0000 hc        1 MOL     -0.015354
    143 H62       -12.4020    2.9090   -2.5150 hc        1 MOL     -0.015354
    144 H63       -14.0080    2.6610   -0.3150 hc        1 MOL     -0.015270
    145 H64       -13.5890    1.2180   -1.3220 hc        1 MOL     -0.015270
    146 H65       -12.3540    1.5890    1.3850 h1        1 MOL      0.056059
    147 H66       -13.0400    0.3310    0.5540 h1        1 MOL      0.056059
    148 N13        -9.4340    3.2380   -0.0190 n         1 MOL     -0.324517
    149 C50        -8.2480    4.0770    0.2240 c3        1 MOL      0.216470
    150 C51        -8.3220    5.4890   -0.3580 c         1 MOL      0.430242
    151 O21        -8.8680    6.3990    0.2450 o         1 MOL     -0.585383
    152 C52        -7.9590    4.0320    1.7420 c3        1 MOL      0.069636
    153 C53        -7.5440    2.7170    2.3190 c3        1 MOL     -0.118194
    154 C54        -7.2890    2.7590    3.8180 c         1 MOL      0.686535
    155 O22        -6.6230    3.7040    4.3610 o         1 MOL     -0.732747
    156 O23        -7.6590    1.7360    4.4500 o         1 MOL     -0.732747
    157 H67       -10.1780    3.3160    0.6470 hn        1 MOL      0.245682
    158 H68        -7.3580    3.6210   -0.2160 h1        1 MOL      0.076078
    159 H69        -8.7520    4.4590    2.3780 hc        1 MOL     -0.030275
    160 H70        -7.1360    4.7290    1.8780 hc        1 MOL     -0.030275
    161 H71        -6.6320    2.3810    1.8360 hc        1 MOL     -0.006503
    162 H72        -8.3270    1.9740    2.1490 hc        1 MOL     -0.006503
    163 N14        -7.8160    5.8510   -1.5530 n         1 MOL     -0.310076
    164 C55        -6.8820    5.0940   -2.3850 c3        1 MOL     -0.151558
    165 H73        -6.9870    4.0300   -2.1720 h1        1 MOL      0.075830
    166 H74        -7.1010    5.2780   -3.4370 h1        1 MOL      0.075830
    167 H75        -5.8620    5.4090   -2.1650 h1        1 MOL      0.075830
    168 H76        -8.1110    6.7420   -1.9130 hn        1 MOL      0.250695
    169 Ca1         6.3130    0.4280   -1.1630 Ca        1 MOL      1.672772
    170 O24         4.9190   -0.5400   -3.1130 oh        1 MOL     -0.801770
    171 H77         5.3070   -0.8730   -3.9190 ho        1 MOL      0.398987
    172 H78         4.1080   -1.0470   -3.0060 ho        1 MOL      0.398987
    173 O25         4.5460    2.5430   -2.0350 oh        1 MOL     -0.801770
    174 H79         3.7700    2.9150   -1.6220 ho        1 MOL      0.398987
    175 H80         4.3250    2.4980   -2.9630 ho        1 MOL      0.398987
    176 O26         3.8550   -0.0910   -0.3020 oh        1 MOL     -0.801770
    177 H81         3.4310    0.7650   -0.2060 ho        1 MOL      0.398987
    178 H82         3.4160   -0.6510    0.3400 ho        1 MOL      0.398987
    179 O27         7.8540   -1.1740   -2.9370 oh        1 MOL     -0.801770
    180 H83         7.7580   -2.1280   -3.0240 ho        1 MOL      0.398987
    181 H84         7.7890   -0.8480   -3.8330 ho        1 MOL      0.398987
@<TRIPOS>BOND
     1    1    2 1   
     2    1    4 1   
     3    1    5 1   
     4    1    6 1   
     5    2    3 2   
     6    2    7 1   
     7    7    8 1   
     8    7   15 1   
     9    8    9 1   
    10    8   11 1   
    11    8   16 1   
    12    9   10 2   
    13    9   19 1   
    14   11   12 1   
    15   11   17 1   
    16   11   18 1   
    17   12   13 1   
    18   12   14 1   
    19   19   20 1   
    20   19   24 1   
    21   20   21 1   
    22   20   23 1   
    23   20   25 1   
    24   21   22 2   
    25   21   29 1   
    26   23   26 1   
    27   23   27 1   
    28   23   28 1   
    29   29   30 1   
    30   29   37 1   
    31   30   31 1   
    32   30   33 1   
    33   30   38 1   
    34   31   32 2   
    35   31   41 1   
    36   33   34 1   
    37   33   39 1   
    38   33   40 1   
    39   34   35 1   
    40   34   36 1   
    41   41   42 1   
    42   41   45 1   
    43   42   43 1   
    44   42   46 1   
    45   42   47 1   
    46   43   44 2   
    47   43   48 1   
    48   48   49 1   
    49   48   56 1   
    50   49   50 1   
    51   49   52 1   
    52   49   57 1   
    53   50   51 2   
    54   50   62 1   
    55   52   53 1   
    56   52   58 1   
    57   52   59 1   
    58   53   54 1   
    59   53   55 2   
    60   54   60 1   
    61   54   61 1   
    62   62   63 1   
    63   62   66 1   
    64   63   64 1   
    65   63   67 1   
    66   63   68 1   
    67   64   65 2   
    68   64   69 1   
    69   69   70 1   
    70   69   76 1   
    71   70   71 1   
    72   70   73 1   
    73   70   77 1   
    74   71   72 2   
    75   71   83 1   
    76   73   74 1   
    77   73   75 1   
    78   73   78 1   
    79   74   80 1   
    80   74   81 1   
    81   74   82 1   
    82   75   79 1   
    83   83   84 1   
    84   83   91 1   
    85   84   85 1   
    86   84   87 1   
    87   84   92 1   
    88   85   86 2   
    89   85  102 1   
    90   87   88 1   
    91   87   89 1   
    92   87   93 1   
    93   88   90 1   
    94   88   94 1   
    95   88   95 1   
    96   89   96 1   
    97   89   97 1   
    98   89   98 1   
    99   90   99 1   
   100   90  100 1   
   101   90  101 1   
   102  102  103 1   
   103  102  110 1   
   104  103  104 1   
   105  103  106 1   
   106  103  111 1   
   107  104  105 2   
   108  104  114 1   
   109  106  107 1   
   110  106  112 1   
   111  106  113 1   
   112  107  108 1   
   113  107  109 1   
   114  114  115 1   
   115  114  125 1   
   116  115  116 1   
   117  115  118 1   
   118  115  126 1   
   119  116  117 2   
   120  116  134 1   
   121  118  119 1   
   122  118  127 1   
   123  118  128 1   
   124  119  120 ar  
   125  119  121 ar  
   126  120  122 ar  
   127  120  129 1   
   128  121  123 ar  
   129  121  130 1   
   130  122  124 ar  
   131  122  131 1   
   132  123  124 ar  
   133  123  132 1   
   134  124  133 1   
   135  134  135 1   
   136  134  140 1   
   137  135  136 1   
   138  135  138 1   
   139  135  141 1   
   140  136  137 2   
   141  136  148 1   
   142  138  139 1   
   143  138  142 1   
   144  138  143 1   
   145  139  140 1   
   146  139  144 1   
   147  139  145 1   
   148  140  146 1   
   149  140  147 1   
   150  148  149 1   
   151  148  157 1   
   152  149  150 1   
   153  149  152 1   
   154  149  158 1   
   155  150  151 2   
   156  150  163 1   
   157  152  153 1   
   158  152  159 1   
   159  152  160 1   
   160  153  154 1   
   161  153  161 1   
   162  153  162 1   
   163  154  155 1   
   164  154  156 1   
   165  163  164 1   
   166  163  168 1   
   167  164  165 1   
   168  164  166 1   
   169  164  167 1   
   170  170  171 1   
   171  170  172 1   
   172  173  174 1   
   173  173  175 1   
   174  176  177 1   
   175  176  178 1   
   176  179  180 1   
   177  179  181 1   
@<TRIPOS>SUBSTRUCTURE
     1 MOL         1 TEMP              0 ****  ****    0 ROOT
