@<TRIPOS>MOLECULE
MOL
  181   177     1     0     0
SMALL
resp


@<TRIPOS>ATOM
      1 C1          1.9260   -1.4340    5.2560 c3        1 MOL     -0.296961
      2 C2          3.0220   -0.6770    4.4860 c         1 MOL      0.630729
      3 O1          2.8120    0.3530    3.8790 o         1 MOL     -0.564683
      4 H1          1.1420   -0.7360    5.5520 hc        1 MOL      0.073608
      5 H2          1.5000   -2.2070    4.6150 hc        1 MOL      0.073608
      6 H3          2.3580   -1.8950    6.1450 hc        1 MOL      0.073608
      7 N1          4.2580   -1.0850    4.5240 n         1 MOL     -0.415030
      8 C3          5.4910   -0.6010    3.7710 c3        1 MOL      0.004906
      9 C4          5.7600   -1.5070    2.5150 c         1 MOL      0.630190
     10 O2          6.6000   -1.1600    1.6750 o         1 MOL     -0.609572
     11 C5          6.7890   -0.6360    4.6390 c3        1 MOL     -0.160386
     12 C6          7.5170    0.7140    4.5700 c         1 MOL      0.671041
     13 O3          8.7760    0.6940    4.5960 o         1 MOL     -0.702686
     14 O4          6.9290    1.8410    4.6920 o         1 MOL     -0.702686
     15 H4          4.5310   -1.9470    4.9940 hn        1 MOL      0.227673
     16 H5          5.3900    0.4260    3.4290 h1        1 MOL      0.102730
     17 H6          7.4240   -1.4140    4.2120 hc        1 MOL      0.018505
     18 H7          6.5830   -1.0390    5.6240 hc        1 MOL      0.018505
     19 N2          4.9870   -2.5410    2.2020 n         1 MOL     -0.494438
     20 C7          4.9550   -3.4990    1.1200 c3        1 MOL      0.174980
     21 C8          4.7970   -2.8440   -0.2990 c         1 MOL      0.471133
     22 O5          3.7030   -2.7410   -0.7970 o         1 MOL     -0.555679
     23 C9          6.0830   -4.4390    1.1610 c3        1 MOL     -0.317164
     24 H8          4.3020   -2.6670    2.9360 hn        1 MOL      0.248790
     25 H9          4.0720   -4.1010    1.3820 h1        1 MOL      0.095875
     26 H10         7.0620   -3.9450    1.1680 hc        1 MOL      0.080274
     27 H11         6.0160   -5.1520    1.9780 hc        1 MOL      0.080274
     28 H12         6.0220   -5.0590    0.2710 hc        1 MOL      0.080274
     29 N3          5.8210   -2.1590   -0.8080 n         1 MOL     -0.251886
     30 C10         5.9330   -1.5440   -2.0920 c3        1 MOL     -0.128449
     31 C11         6.1940   -0.0600   -2.0350 c         1 MOL      0.642194
     32 O6          6.6930    0.5280   -2.9730 o         1 MOL     -0.591586
     33 C12         6.9850   -2.3020   -2.8870 c3        1 MOL     -0.116309
     34 C13         6.7620   -3.8270   -2.9700 c         1 MOL      0.588929
     35 O7          5.5620   -4.2490   -3.1080 o         1 MOL     -0.658317
     36 O8          7.8020   -4.5730   -3.0110 o         1 MOL     -0.658317
     37 H13         6.6480   -2.1340   -0.2350 hn        1 MOL      0.270146
     38 H14         4.9820   -1.6270   -2.6260 h1        1 MOL      0.054945
     39 H15         7.9510   -2.0770   -2.4350 hc        1 MOL      0.026141
     40 H16         7.1130   -1.9890   -3.9250 hc        1 MOL      0.026141
     41 N4          5.9560    0.5350   -0.8860 n         1 MOL     -0.244390
     42 C14         5.9470    1.9530   -0.6940 c3        1 MOL     -0.155045
     43 C15         4.9270    2.7110   -1.4740 c         1 MOL      0.726369
     44 O9          5.2210    3.7510   -1.9700 o         1 MOL     -0.552337
     45 H17         5.6550   -0.0020   -0.0830 hn        1 MOL      0.235688
     46 H18         6.8950    2.3330   -1.0840 h1        1 MOL      0.076584
     47 H19         5.7880    2.2340    0.3430 h1        1 MOL      0.076584
     48 N5          3.6480    2.1680   -1.5290 n         1 MOL     -0.482772
     49 C16         2.6330    2.6440   -2.4490 c3        1 MOL     -0.208671
     50 C17         2.1680    4.1260   -2.1220 c         1 MOL      0.482190
     51 O10         2.0150    4.5170   -0.9350 o         1 MOL     -0.475385
     52 C18         1.4120    1.6370   -2.4510 c3        1 MOL     -0.126581
     53 C19         1.9080    0.2720   -2.9710 c         1 MOL      0.544281
     54 N6          1.8600    0.1110   -4.2500 n         1 MOL     -0.542799
     55 O11         2.3920   -0.6620   -2.2920 o         1 MOL     -0.581903
     56 H20         3.4080    1.3070   -1.0640 hn        1 MOL      0.296587
     57 H21         3.0940    2.5980   -3.4380 h1        1 MOL      0.086683
     58 H22         0.4940    2.0510   -2.8720 hc        1 MOL      0.135297
     59 H23         1.3260    1.4660   -1.3760 hc        1 MOL      0.135297
     60 H24         1.5890    0.8700   -4.8480 hn        1 MOL      0.272884
     61 H25         2.0830   -0.7810   -4.6710 hn        1 MOL      0.272884
     62 N7          1.9310    4.9260   -3.1480 n         1 MOL     -0.247211
     63 C20         1.4900    6.3330   -2.9300 c3        1 MOL     -0.264341
     64 C21         0.1050    6.5400   -2.1620 c         1 MOL      0.441896
     65 O12        -0.8650    5.9440   -2.6300 o         1 MOL     -0.488108
     66 H26         2.0830    4.5480   -4.0720 hn        1 MOL      0.250567
     67 H27         1.4820    6.7310   -3.9370 h1        1 MOL      0.130163
     68 H28         2.3340    6.9410   -2.6150 h1        1 MOL      0.130163
     69 N8          0.0080    7.2950   -1.0960 n         1 MOL     -0.284773
     70 C22        -1.2390    7.7630   -0.4760 c3        1 MOL     -0.476319
     71 C23        -1.9710    6.6340    0.2160 c         1 MOL      0.535912
     72 O13        -3.0330    6.8220    0.7420 o         1 MOL     -0.579769
     73 C24        -1.2140    9.1220    0.2650 c3        1 MOL      0.601604
     74 C25        -0.5710    9.1360    1.6760 c3        1 MOL     -0.365915
     75 O14        -0.4420   10.0310   -0.4640 oh        1 MOL     -0.651706
     76 H29         0.8510    7.6420   -0.6630 hn        1 MOL      0.266758
     77 H30        -1.8250    7.8970   -1.3790 h1        1 MOL      0.208502
     78 H31        -2.2320    9.5090    0.1990 h1        1 MOL      0.013802
     79 H32         0.4110    9.6160   -0.6600 ho        1 MOL      0.368977
     80 H33        -1.3300    8.8230    2.3920 hc        1 MOL      0.088705
     81 H34         0.2860    8.4670    1.6020 hc        1 MOL      0.088705
     82 H35        -0.2190   10.1420    1.8980 hc        1 MOL      0.088705
     83 N9         -1.3790    5.4690    0.4290 n         1 MOL     -0.086269
     84 C26        -2.0200    4.2420    0.8810 c3        1 MOL     -0.023552
     85 C27        -1.8630    3.0690   -0.0960 c         1 MOL      0.423386
     86 O15        -1.1330    3.2020   -1.0470 o         1 MOL     -0.412232
     87 C28        -1.4450    3.8200    2.2780 c3        1 MOL      0.064973
     88 C29         0.0140    3.5690    2.2040 c3        1 MOL     -0.135480
     89 C30        -1.6650    4.8600    3.4010 c3        1 MOL     -0.220715
     90 C31         0.6580    3.0350    3.5180 c3        1 MOL     -0.146972
     91 H36        -0.4470    5.3730    0.0430 hn        1 MOL      0.144368
     92 H37        -3.0860    4.3290    1.1100 h1        1 MOL      0.066084
     93 H38        -1.9440    2.9060    2.6070 hc        1 MOL      0.007298
     94 H39         0.5140    4.5020    1.9320 hc        1 MOL      0.094196
     95 H40         0.2900    2.9110    1.3860 hc        1 MOL      0.094196
     96 H41        -0.9950    5.7190    3.2790 hc        1 MOL      0.048486
     97 H42        -2.6960    5.2230    3.3850 hc        1 MOL      0.048486
     98 H43        -1.4940    4.4250    4.3820 hc        1 MOL      0.048486
     99 H44         1.7370    3.0570    3.3430 hc        1 MOL      0.056720
    100 H45         0.5500    3.6760    4.4010 hc        1 MOL      0.056720
    101 H46         0.3800    2.0060    3.7190 hc        1 MOL      0.056720
    102 N10        -2.4400    1.8760    0.3150 n         1 MOL     -0.679128
    103 C32        -2.2050    0.6020   -0.3380 c3        1 MOL      0.339747
    104 C33        -3.4600   -0.2550   -0.5500 c         1 MOL      0.504398
    105 O16        -3.4550   -1.4630   -0.5160 o         1 MOL     -0.479950
    106 C34        -1.0510   -0.1030    0.3560 c3        1 MOL      0.115911
    107 C35        -0.2740   -1.1670   -0.4750 c         1 MOL      0.434203
    108 O17         0.5040   -1.9840    0.1150 o         1 MOL     -0.697932
    109 O18        -0.4260   -1.2280   -1.6760 o         1 MOL     -0.697932
    110 H47        -3.0040    1.9410    1.1600 hn        1 MOL      0.314039
    111 H48        -1.8440    0.7610   -1.3510 h1        1 MOL     -0.017961
    112 H49        -1.5030   -0.6020    1.2110 hc        1 MOL     -0.003945
    113 H50        -0.3310    0.5830    0.8060 hc        1 MOL     -0.003945
    114 N11        -4.6120    0.4430   -0.6950 n         1 MOL     -0.550595
    115 C36        -5.9710   -0.1650   -0.9270 c3        1 MOL      0.167091
    116 C37        -6.2720   -1.2010    0.1370 c         1 MOL      0.292765
    117 O19        -6.3440   -0.9020    1.3240 o         1 MOL     -0.467839
    118 C38        -7.0480    0.9430   -0.7650 c3        1 MOL     -0.080311
    119 C39        -8.5180    0.5260   -1.1350 ca        1 MOL      0.018423
    120 C40        -8.9150    0.4050   -2.4560 ca        1 MOL     -0.168018
    121 C41        -9.4000    0.0220   -0.0910 ca        1 MOL     -0.168018
    122 C42       -10.1690   -0.1540   -2.6890 ca        1 MOL     -0.063309
    123 C43       -10.6220   -0.5950   -0.3820 ca        1 MOL     -0.063309
    124 C44       -10.9390   -0.6880   -1.7110 ca        1 MOL     -0.137937
    125 H51        -4.4960    1.4460   -0.7550 hn        1 MOL      0.296025
    126 H52        -6.0270   -0.5670   -1.9380 h1        1 MOL      0.039879
    127 H53        -6.7750    1.7960   -1.3860 hc        1 MOL      0.067142
    128 H54        -6.9820    1.4000    0.2170 hc        1 MOL      0.067142
    129 H55        -8.2670    0.7570   -3.2530 ha        1 MOL      0.124643
    130 H56        -9.1150    0.3050    0.9200 ha        1 MOL      0.124643
    131 H57       -10.5440   -0.3450   -3.6930 ha        1 MOL      0.095062
    132 H58       -11.3010   -0.9390    0.3950 ha        1 MOL      0.095062
    133 H59       -11.8630   -1.1980   -1.9510 ha        1 MOL      0.099660
    134 N12        -6.6180   -2.4830   -0.2370 n         1 MOL     -0.035917
    135 C45        -7.0680   -3.5390    0.6850 c3        1 MOL      0.031546
    136 C46        -6.0060   -3.8030    1.8120 c         1 MOL      0.194228
    137 O20        -6.3010   -4.2430    2.8690 o         1 MOL     -0.496082
    138 C47        -7.3710   -4.8020   -0.1340 c3        1 MOL      0.097512
    139 C48        -7.7050   -4.1790   -1.5150 c3        1 MOL     -0.093860
    140 C49        -6.8430   -2.9430   -1.6120 c3        1 MOL      0.041770
    141 H60        -8.0020   -3.2730    1.1590 h1        1 MOL      0.068134
    142 H61        -6.4550   -5.3590   -0.3400 hc        1 MOL      0.001093
    143 H62        -8.1770   -5.4530    0.2200 hc        1 MOL      0.001093
    144 H63        -7.4370   -4.8490   -2.3240 hc        1 MOL      0.020625
    145 H64        -8.7880   -4.0330   -1.5500 hc        1 MOL      0.020625
    146 H65        -5.9410   -3.2730   -2.1240 h1        1 MOL      0.020033
    147 H66        -7.3160   -2.2050   -2.2450 h1        1 MOL      0.020033
    148 N13        -4.8130   -3.5210    1.5220 n         1 MOL      0.143651
    149 C50        -3.7030   -3.6210    2.4500 c3        1 MOL     -0.488229
    150 C51        -3.7640   -2.5330    3.6180 c         1 MOL      0.459162
    151 O21        -3.2050   -2.8020    4.6920 o         1 MOL     -0.535420
    152 C52        -2.2200   -3.5870    1.8510 c3        1 MOL      0.200934
    153 C53        -2.1590   -4.8620    1.0110 c3        1 MOL     -0.321208
    154 C54        -0.7640   -4.9020    0.3880 c         1 MOL      0.792842
    155 O22         0.1970   -5.3860    1.0590 o         1 MOL     -0.753175
    156 O23        -0.5570   -4.5350   -0.7810 o         1 MOL     -0.753175
    157 H67        -4.5710   -3.0250    0.6780 hn        1 MOL      0.098819
    158 H68        -3.8880   -4.5370    2.9990 h1        1 MOL      0.210786
    159 H69        -1.4090   -3.5550    2.5830 hc        1 MOL      0.066799
    160 H70        -2.0020   -2.7550    1.1750 hc        1 MOL      0.066799
    161 H71        -2.9540   -4.7020    0.2930 hc        1 MOL      0.047323
    162 H72        -2.3410   -5.6510    1.7320 hc        1 MOL      0.047323
    163 N14        -4.3670   -1.3420    3.3580 n         1 MOL     -0.089341
    164 C55        -4.4770   -0.1710    4.2820 c3        1 MOL     -0.403759
    165 H73        -4.8610   -0.5040    5.2460 h1        1 MOL      0.144149
    166 H74        -3.4930    0.2770    4.4180 h1        1 MOL      0.144149
    167 H75        -5.1570    0.5670    3.8550 h1        1 MOL      0.144149
    168 H76        -4.7280   -1.1930    2.4280 hn        1 MOL      0.157745
    169 Ca1         1.3380   -3.3640   -2.0330 Ca        1 MOL      1.796902
    170 O24         0.2120   -2.5340   -4.3580 oh        1 MOL     -0.842243
    171 H77        -0.4920   -1.8940   -4.4840 ho        1 MOL      0.403937
    172 H78         0.1200   -3.1330   -5.0930 ho        1 MOL      0.403937
    173 O25         2.2580   -5.6370   -0.6290 oh        1 MOL     -0.842243
    174 H79         2.5870   -6.5330   -0.6260 ho        1 MOL      0.403937
    175 H80         1.5540   -5.6330    0.0170 ho        1 MOL      0.403937
    176 O26         3.2370   -3.4570   -3.9670 oh        1 MOL     -0.842243
    177 H81         4.1080   -3.6460   -3.6190 ho        1 MOL      0.403937
    178 H82         3.3810   -2.8350   -4.6710 ho        1 MOL      0.403937
    179 O27         1.3030   -5.6420   -3.2480 oh        1 MOL     -0.842243
    180 H83         0.7450   -5.5710   -4.0220 ho        1 MOL      0.403937
    181 H84         2.0420   -6.1830   -3.5300 ho        1 MOL      0.403937
@<TRIPOS>BOND
     1    1    2 1   
     2    1    4 1   
     3    1    5 1   
     4    1    6 1   
     5    2    3 2   
     6    2    7 1   
     7    7    8 1   
     8    7   15 1   
     9    8    9 1   
    10    8   11 1   
    11    8   16 1   
    12    9   10 2   
    13    9   19 1   
    14   11   12 1   
    15   11   17 1   
    16   11   18 1   
    17   12   13 1   
    18   12   14 1   
    19   19   20 1   
    20   19   24 1   
    21   20   21 1   
    22   20   23 1   
    23   20   25 1   
    24   21   22 2   
    25   21   29 1   
    26   23   26 1   
    27   23   27 1   
    28   23   28 1   
    29   29   30 1   
    30   29   37 1   
    31   30   31 1   
    32   30   33 1   
    33   30   38 1   
    34   31   32 2   
    35   31   41 1   
    36   33   34 1   
    37   33   39 1   
    38   33   40 1   
    39   34   35 1   
    40   34   36 1   
    41   41   42 1   
    42   41   45 1   
    43   42   43 1   
    44   42   46 1   
    45   42   47 1   
    46   43   44 2   
    47   43   48 1   
    48   48   49 1   
    49   48   56 1   
    50   49   50 1   
    51   49   52 1   
    52   49   57 1   
    53   50   51 2   
    54   50   62 1   
    55   52   53 1   
    56   52   58 1   
    57   52   59 1   
    58   53   54 1   
    59   53   55 2   
    60   54   60 1   
    61   54   61 1   
    62   62   63 1   
    63   62   66 1   
    64   63   64 1   
    65   63   67 1   
    66   63   68 1   
    67   64   65 2   
    68   64   69 1   
    69   69   70 1   
    70   69   76 1   
    71   70   71 1   
    72   70   73 1   
    73   70   77 1   
    74   71   72 2   
    75   71   83 1   
    76   73   74 1   
    77   73   75 1   
    78   73   78 1   
    79   74   80 1   
    80   74   81 1   
    81   74   82 1   
    82   75   79 1   
    83   83   84 1   
    84   83   91 1   
    85   84   85 1   
    86   84   87 1   
    87   84   92 1   
    88   85   86 2   
    89   85  102 1   
    90   87   88 1   
    91   87   89 1   
    92   87   93 1   
    93   88   90 1   
    94   88   94 1   
    95   88   95 1   
    96   89   96 1   
    97   89   97 1   
    98   89   98 1   
    99   90   99 1   
   100   90  100 1   
   101   90  101 1   
   102  102  103 1   
   103  102  110 1   
   104  103  104 1   
   105  103  106 1   
   106  103  111 1   
   107  104  105 2   
   108  104  114 1   
   109  106  107 1   
   110  106  112 1   
   111  106  113 1   
   112  107  108 1   
   113  107  109 1   
   114  114  115 1   
   115  114  125 1   
   116  115  116 1   
   117  115  118 1   
   118  115  126 1   
   119  116  117 2   
   120  116  134 1   
   121  118  119 1   
   122  118  127 1   
   123  118  128 1   
   124  119  120 ar  
   125  119  121 ar  
   126  120  122 ar  
   127  120  129 1   
   128  121  123 ar  
   129  121  130 1   
   130  122  124 ar  
   131  122  131 1   
   132  123  124 ar  
   133  123  132 1   
   134  124  133 1   
   135  134  135 1   
   136  134  140 1   
   137  135  136 1   
   138  135  138 1   
   139  135  141 1   
   140  136  137 2   
   141  136  148 1   
   142  138  139 1   
   143  138  142 1   
   144  138  143 1   
   145  139  140 1   
   146  139  144 1   
   147  139  145 1   
   148  140  146 1   
   149  140  147 1   
   150  148  149 1   
   151  148  157 1   
   152  149  150 1   
   153  149  152 1   
   154  149  158 1   
   155  150  151 2   
   156  150  163 1   
   157  152  153 1   
   158  152  159 1   
   159  152  160 1   
   160  153  154 1   
   161  153  161 1   
   162  153  162 1   
   163  154  155 1   
   164  154  156 1   
   165  163  164 1   
   166  163  168 1   
   167  164  165 1   
   168  164  166 1   
   169  164  167 1   
   170  170  171 1   
   171  170  172 1   
   172  173  174 1   
   173  173  175 1   
   174  176  177 1   
   175  176  178 1   
   176  179  180 1   
   177  179  181 1   
@<TRIPOS>SUBSTRUCTURE
     1 MOL         1 TEMP              0 ****  ****    0 ROOT
