@<TRIPOS>MOLECULE
MOL
  197   188     1     0     0
SMALL
resp


@<TRIPOS>ATOM
      1 C1          1.8880    0.3760    3.4980 c3        1 MOL     -0.372310
      2 C2          3.1410    0.4260    2.5890 c         1 MOL      0.818525
      3 O1          2.9860    0.5150    1.3720 o         1 MOL     -0.738024
      4 H1          0.9920    0.3410    2.8780 hc        1 MOL      0.095287
      5 H2          1.9300   -0.5120    4.1270 hc        1 MOL      0.095287
      6 H3          1.8580    1.2660    4.1270 hc        1 MOL      0.095287
      7 N1          4.2830    0.1790    3.1540 n         1 MOL     -0.513618
      8 C3          5.6070    0.0060    2.5430 c3        1 MOL      0.103869
      9 C4          5.9230   -1.4540    2.2660 c         1 MOL      0.377299
     10 O2          7.1050   -1.7790    2.2880 o         1 MOL     -0.428337
     11 C5          6.6090    0.7220    3.4190 c3        1 MOL     -0.224227
     12 C6          6.6960    0.2400    4.8880 c         1 MOL      0.712771
     13 O3          7.4710    0.7930    5.6950 o         1 MOL     -0.693532
     14 O4          5.8860   -0.6770    5.2200 o         1 MOL     -0.693532
     15 H4          4.2430   -0.0690    4.1300 hn        1 MOL      0.257133
     16 H5          5.5810    0.5270    1.5780 h1        1 MOL      0.082568
     17 H6          6.3090    1.7640    3.4830 hc        1 MOL      0.059727
     18 H7          7.5680    0.7360    2.9160 hc        1 MOL      0.059727
     19 N2          4.8990   -2.2990    2.0210 n         1 MOL     -0.452182
     20 C7          5.1600   -3.6830    1.4610 c3        1 MOL      0.039764
     21 C8          5.9470   -3.6570    0.1930 c         1 MOL      0.470618
     22 O5          6.9510   -4.3520    0.0740 o         1 MOL     -0.538287
     23 C9          5.5580   -4.7690    2.5120 c3        1 MOL      0.027937
     24 C10         5.2430   -6.2460    2.1380 c3        1 MOL     -0.067385
     25 C11         5.9800   -7.2440    3.0580 c3        1 MOL      0.004313
     26 C12         7.3850   -7.3920    2.5260 c3        1 MOL      0.065180
     27 N3          8.2950   -7.9470    3.6050 n4        1 MOL     -0.316206
     28 H8          3.9570   -1.9730    2.1770 hn        1 MOL      0.305326
     29 H9          4.2140   -4.0500    1.0680 h1        1 MOL      0.030659
     30 H10         5.1060   -4.5220    3.4720 hc        1 MOL      0.053349
     31 H11         6.6250   -4.6170    2.6530 hc        1 MOL      0.053349
     32 H12         5.5400   -6.4590    1.1070 hc        1 MOL      0.026714
     33 H13         4.1560   -6.3410    2.2140 hc        1 MOL      0.026714
     34 H14         5.5310   -8.2320    3.1170 hc        1 MOL      0.019428
     35 H15         5.9500   -6.8140    4.0630 hc        1 MOL      0.019428
     36 H16         7.7210   -6.4000    2.2290 hx        1 MOL      0.077589
     37 H17         7.4050   -8.0550    1.6510 hx        1 MOL      0.077589
     38 H18         8.4950   -7.2980    4.3530 hn        1 MOL      0.280760
     39 H19         8.0230   -8.8510    3.9810 hn        1 MOL      0.280760
     40 H20         9.2050   -8.1830    3.2430 hn        1 MOL      0.280760
     41 N4          5.5050   -2.7500   -0.7140 n         1 MOL     -0.234725
     42 C13         6.1310   -2.4080   -1.9790 c3        1 MOL      0.011648
     43 C14         6.2680   -0.8880   -2.1430 c         1 MOL      0.683317
     44 O6          5.5200   -0.1280   -1.5560 o         1 MOL     -0.530301
     45 C15         5.4530   -3.1650   -3.1650 c3        1 MOL     -0.356694
     46 C16         3.9030   -3.1000   -3.1710 c         1 MOL      0.769961
     47 O7          3.1510   -3.6970   -2.3790 o         1 MOL     -0.736903
     48 O8          3.4010   -2.3150   -4.0320 o         1 MOL     -0.736903
     49 H21         4.6190   -2.4350   -0.3620 hn        1 MOL      0.152441
     50 H22         7.1540   -2.7650   -1.8470 h1        1 MOL      0.077433
     51 H23         5.6990   -4.2030   -2.9270 hc        1 MOL      0.093551
     52 H24         5.8370   -2.8770   -4.1460 hc        1 MOL      0.093551
     53 N5          7.1790   -0.4310   -3.0650 n         1 MOL     -0.496017
     54 C17         7.6490    0.9030   -3.1780 c3        1 MOL     -0.090322
     55 C18         8.1840    1.3420   -1.8170 c         1 MOL      0.512758
     56 O9          9.0900    0.7380   -1.3350 o         1 MOL     -0.512600
     57 H25         7.7150   -1.1230   -3.5690 hn        1 MOL      0.313625
     58 H26         6.8520    1.5280   -3.5840 h1        1 MOL      0.103653
     59 H27         8.3800    0.8230   -3.9840 h1        1 MOL      0.103653
     60 N6          7.6180    2.3280   -1.1450 n         1 MOL     -0.437889
     61 C19         6.4840    3.2250   -1.4730 c3        1 MOL      0.290502
     62 C20         5.9310    3.8880   -0.1400 c         1 MOL      0.374676
     63 O10         6.6740    4.3240    0.6590 o         1 MOL     -0.475708
     64 C21         6.6900    4.2700   -2.6040 c3        1 MOL     -0.374344
     65 C22         7.6240    5.4240   -2.2200 c         1 MOL      0.621174
     66 N7          7.1420    6.6150   -1.9560 n         1 MOL     -0.709147
     67 O11         8.8360    5.2490   -2.1190 o         1 MOL     -0.529025
     68 H28         8.0000    2.4760   -0.2250 hn        1 MOL      0.312949
     69 H29         5.7460    2.5440   -1.9120 h1        1 MOL      0.031602
     70 H30         5.7470    4.7750   -2.8410 hc        1 MOL      0.082070
     71 H31         7.0160    3.8310   -3.5490 hc        1 MOL      0.082070
     72 H32         6.1560    6.8030   -1.9980 hn        1 MOL      0.344116
     73 H33         7.8180    7.3620   -1.9390 hn        1 MOL      0.344116
     74 N8          4.6470    3.9970    0.1230 n         1 MOL     -0.233775
     75 C23         3.4600    3.6300   -0.6450 c3        1 MOL     -0.290956
     76 C24         2.2240    4.0280    0.0490 c         1 MOL      0.875158
     77 O12         2.2690    4.9150    0.9030 o         1 MOL     -0.594940
     78 H34         4.4310    4.4260    1.0120 hn        1 MOL      0.255867
     79 H35         3.4210    2.5480   -0.7370 h1        1 MOL      0.081606
     80 H36         3.5190    4.0920   -1.6350 h1        1 MOL      0.081606
     81 N9          1.0450    3.5400   -0.3220 n         1 MOL     -0.699992
     82 C25        -0.2640    4.0340    0.1850 c3        1 MOL      0.065697
     83 C26        -1.2100    2.8910    0.2800 c         1 MOL      0.730036
     84 O13        -0.9110    1.6920    0.1940 o         1 MOL     -0.599188
     85 C27        -0.7380    5.1550   -0.7730 c3        1 MOL     -0.070859
     86 C28        -1.5860    6.1920   -0.1030 ca        1 MOL      0.004561
     87 C29        -2.9210    6.3390   -0.4720 ca        1 MOL     -0.154896
     88 C30        -0.9720    6.9920    0.8560 ca        1 MOL     -0.154896
     89 C31        -3.7480    7.1790    0.3150 ca        1 MOL     -0.245326
     90 C32        -1.7540    7.9230    1.5740 ca        1 MOL     -0.245326
     91 C33        -3.1440    7.9650    1.2910 ca        1 MOL      0.324780
     92 O14        -3.9960    8.8080    1.9380 oh        1 MOL     -0.533408
     93 H37         1.0690    2.9860   -1.1590 hn        1 MOL      0.310921
     94 H38        -0.0690    4.3250    1.2150 h1        1 MOL      0.108079
     95 H39        -1.2940    4.7720   -1.6270 hc        1 MOL      0.047818
     96 H40         0.1300    5.6430   -1.2150 hc        1 MOL      0.047818
     97 H41        -3.3150    5.9410   -1.3950 ha        1 MOL      0.156341
     98 H42         0.0780    6.8430    1.0880 ha        1 MOL      0.156341
     99 H43        -4.8070    7.3020    0.1260 ha        1 MOL      0.152730
    100 H44        -1.3310    8.5340    2.3550 ha        1 MOL      0.152730
    101 H45        -3.5490    9.5750    2.2830 ho        1 MOL      0.400043
    102 N10        -2.4430    3.2400    0.4530 n         1 MOL     -0.643218
    103 C34        -3.6180    2.3880    0.6760 c3        1 MOL      0.011676
    104 C35        -4.6140    2.5020   -0.5280 c         1 MOL      0.579628
    105 O15        -4.6660    3.5170   -1.2040 o         1 MOL     -0.578302
    106 C36        -4.3720    2.9560    1.9810 c3        1 MOL      0.114480
    107 C37        -4.9290    4.3860    1.7740 c3        1 MOL     -0.045549
    108 C38        -5.4400    1.9550    2.5120 c3        1 MOL     -0.249978
    109 C39        -4.8750    5.2190    3.0750 c3        1 MOL     -0.329014
    110 H46        -2.6490    4.2250    0.3280 hn        1 MOL      0.320524
    111 H47        -3.2530    1.3680    0.8630 h1        1 MOL      0.117600
    112 H48        -3.5980    2.9450    2.7490 hc        1 MOL      0.045351
    113 H49        -5.9990    4.4140    1.5550 hc        1 MOL      0.086025
    114 H50        -4.2820    4.8370    1.0340 hc        1 MOL      0.086025
    115 H51        -6.4050    1.9980    1.9880 hc        1 MOL      0.068510
    116 H52        -5.0310    0.9440    2.5590 hc        1 MOL      0.068510
    117 H53        -5.5680    2.1550    3.5760 hc        1 MOL      0.068510
    118 H54        -3.8190    5.3140    3.3310 hc        1 MOL      0.088285
    119 H55        -5.5510    6.0730    2.9790 hc        1 MOL      0.088285
    120 H56        -5.3090    4.6240    3.8680 hc        1 MOL      0.088285
    121 N11        -5.4460    1.5060   -0.5870 n         1 MOL     -0.423910
    122 C40        -6.5500    1.3240   -1.5440 c3        1 MOL      0.039289
    123 C41        -6.6740   -0.0980   -2.0420 c         1 MOL      0.536180
    124 O16        -5.9900   -1.0650   -1.5380 o         1 MOL     -0.454933
    125 C42        -7.7540    1.8500   -0.7820 c3        1 MOL     -0.172583
    126 O17        -8.1490    1.0060    0.2740 oh        1 MOL     -0.345390
    127 H57        -5.2080    0.7260    0.0060 hn        1 MOL      0.193139
    128 H58        -6.4220    1.9690   -2.4170 h1        1 MOL      0.099544
    129 H59        -8.5950    1.9190   -1.4650 h1        1 MOL      0.095523
    130 H60        -7.6480    2.8660   -0.3870 h1        1 MOL      0.095523
    131 H61        -9.1080    0.9780    0.2660 ho        1 MOL      0.389708
    132 N12        -7.4680   -0.2550   -3.0650 n         1 MOL     -0.548259
    133 C43        -7.7280   -1.4990   -3.7210 c3        1 MOL      0.379684
    134 C44        -8.3550   -2.4970   -2.6890 c         1 MOL      0.331387
    135 O18        -7.8780   -3.6330   -2.5560 o         1 MOL     -0.438195
    136 C45        -6.4490   -1.8740   -4.5310 c3        1 MOL     -0.363283
    137 H62        -7.7270    0.6200   -3.4920 hn        1 MOL      0.291839
    138 H63        -8.4860   -1.3090   -4.4820 h1        1 MOL      0.013484
    139 H64        -5.6830   -2.2700   -3.8700 hc        1 MOL      0.096853
    140 H65        -6.6750   -2.5710   -5.3320 hc        1 MOL      0.096853
    141 H66        -6.0640   -0.9430   -4.9380 hc        1 MOL      0.096853
    142 N13        -9.4910   -2.1230   -2.0360 n         1 MOL     -0.387050
    143 C46       -10.2060   -2.9680   -1.0670 c3        1 MOL      0.075993
    144 C47        -9.5150   -3.2440    0.2690 c         1 MOL      0.415249
    145 O19       -10.0050   -4.0270    1.0760 o         1 MOL     -0.494699
    146 C48       -10.6900   -4.2500   -1.8420 c3        1 MOL     -0.374565
    147 H67        -9.8320   -1.1780   -2.0950 hn        1 MOL      0.239214
    148 H68       -11.1090   -2.4310   -0.7790 h1        1 MOL      0.074323
    149 H69        -9.9490   -4.9610   -2.2150 hc        1 MOL      0.121619
    150 H70       -11.2520   -4.9520   -1.2200 hc        1 MOL      0.121619
    151 H71       -11.2030   -3.9530   -2.7510 hc        1 MOL      0.121619
    152 N14        -8.4830   -2.5010    0.5820 n         1 MOL     -0.124369
    153 C49        -7.6650   -2.6330    1.8090 c3        1 MOL     -0.030095
    154 C50        -8.3750   -1.8950    2.9570 c         1 MOL      0.344781
    155 O20        -8.6880   -2.5300    3.9700 o         1 MOL     -0.467248
    156 C51        -6.2560   -2.0640    1.5710 c3        1 MOL      0.147926
    157 C52        -5.1740   -2.1850    2.6880 c3        1 MOL     -0.264062
    158 C53        -4.6960   -3.6360    2.8880 c         1 MOL      0.610029
    159 O21        -5.5160   -4.4690    3.4190 o         1 MOL     -0.642928
    160 O22        -3.6190   -3.9690    2.3760 o         1 MOL     -0.642928
    161 H72        -8.1800   -1.8450   -0.1210 hn        1 MOL      0.028433
    162 H73        -7.5910   -3.6920    2.0370 h1        1 MOL      0.148272
    163 H74        -6.2710   -1.0300    1.2240 hc        1 MOL      0.025723
    164 H75        -5.8660   -2.5590    0.6810 hc        1 MOL      0.025723
    165 H76        -5.4790   -1.6470    3.5860 hc        1 MOL      0.037940
    166 H77        -4.2880   -1.5800    2.4760 hc        1 MOL      0.037940
    167 N15        -8.7650   -0.6260    2.7120 n         1 MOL     -0.107571
    168 C54        -9.7420    0.0010    3.6540 c3        1 MOL     -0.058457
    169 H78       -10.7100    0.0970    3.1610 h1        1 MOL      0.050061
    170 H79        -9.8480   -0.6260    4.5390 h1        1 MOL      0.050061
    171 H80        -9.3840    0.9870    3.9470 h1        1 MOL      0.050061
    172 H81        -8.4570   -0.1490    1.8830 hn        1 MOL     -0.028185
    173 Ca1         0.9850   -2.2780   -2.5930 Ca        1 MOL      1.667074
    174 O23         1.7910    0.1950   -3.9540 oh        1 MOL     -0.760712
    175 H82         1.0420    0.7850   -3.9850 ho        1 MOL      0.384520
    176 H83         2.0700    0.1100   -4.8660 ho        1 MOL      0.384520
    177 O24        -1.3780   -1.1560   -3.1940 oh        1 MOL     -0.760712
    178 H84        -1.8020   -1.5930   -3.9300 ho        1 MOL      0.384520
    179 H85        -1.8320   -0.3100   -3.1230 ho        1 MOL      0.384520
    180 O25         1.5280   -3.6140   -0.1830 oh        1 MOL     -0.760712
    181 H86         2.3210   -4.1300   -0.3540 ho        1 MOL      0.384520
    182 H87         1.4260   -3.6410    0.7690 ho        1 MOL      0.384520
    183 O26        -0.2060   -0.9890   -0.5700 oh        1 MOL     -0.760712
    184 H88        -0.3910   -0.0490   -0.6550 ho        1 MOL      0.384520
    185 H89        -0.5960   -1.2220    0.2710 ho        1 MOL      0.384520
    186 O27         2.8560   -0.8390   -1.1150 oh        1 MOL     -0.760712
    187 H90         2.9290   -0.5640   -0.2050 ho        1 MOL      0.384520
    188 H91         3.5700   -0.3840   -1.5650 ho        1 MOL      0.384520
    189 O28        -1.0150   -3.9700   -1.9280 oh        1 MOL     -0.760712
    190 H92        -1.9120   -3.7600   -1.6420 ho        1 MOL      0.384520
    191 H93        -1.0420   -4.9160   -2.1120 ho        1 MOL      0.384520
    192 O29         0.3520   -2.4570   -5.2320 oh        1 MOL     -0.760712
    193 H94         0.3640   -3.3360   -5.6210 ho        1 MOL      0.384520
    194 H95        -0.1400   -1.9250   -5.8630 ho        1 MOL      0.384520
    195 O30         0.9650   -4.9340   -3.7740 oh        1 MOL     -0.760712
    196 H96         0.6170   -5.7820   -4.0610 ho        1 MOL      0.384520
    197 H97         1.8620   -4.9130   -4.1140 ho        1 MOL      0.384520
@<TRIPOS>BOND
     1    1    2 1   
     2    1    4 1   
     3    1    5 1   
     4    1    6 1   
     5    2    3 2   
     6    2    7 1   
     7    7    8 1   
     8    7   15 1   
     9    8    9 1   
    10    8   11 1   
    11    8   16 1   
    12    9   10 2   
    13    9   19 1   
    14   11   12 1   
    15   11   17 1   
    16   11   18 1   
    17   12   13 1   
    18   12   14 1   
    19   19   20 1   
    20   19   28 1   
    21   20   21 1   
    22   20   23 1   
    23   20   29 1   
    24   21   22 2   
    25   21   41 1   
    26   23   24 1   
    27   23   30 1   
    28   23   31 1   
    29   24   25 1   
    30   24   32 1   
    31   24   33 1   
    32   25   26 1   
    33   25   34 1   
    34   25   35 1   
    35   26   27 1   
    36   26   36 1   
    37   26   37 1   
    38   27   38 1   
    39   27   39 1   
    40   27   40 1   
    41   41   42 1   
    42   41   49 1   
    43   42   43 1   
    44   42   45 1   
    45   42   50 1   
    46   43   44 2   
    47   43   53 1   
    48   45   46 1   
    49   45   51 1   
    50   45   52 1   
    51   46   47 1   
    52   46   48 1   
    53   53   54 1   
    54   53   57 1   
    55   54   55 1   
    56   54   58 1   
    57   54   59 1   
    58   55   56 2   
    59   55   60 1   
    60   60   61 1   
    61   60   68 1   
    62   61   62 1   
    63   61   64 1   
    64   61   69 1   
    65   62   63 2   
    66   62   74 1   
    67   64   65 1   
    68   64   70 1   
    69   64   71 1   
    70   65   66 1   
    71   65   67 2   
    72   66   72 1   
    73   66   73 1   
    74   74   75 1   
    75   74   78 1   
    76   75   76 1   
    77   75   79 1   
    78   75   80 1   
    79   76   77 2   
    80   76   81 1   
    81   81   82 1   
    82   81   93 1   
    83   82   83 1   
    84   82   85 1   
    85   82   94 1   
    86   83   84 2   
    87   83  102 1   
    88   85   86 1   
    89   85   95 1   
    90   85   96 1   
    91   86   87 ar  
    92   86   88 ar  
    93   87   89 ar  
    94   87   97 1   
    95   88   90 ar  
    96   88   98 1   
    97   89   91 ar  
    98   89   99 1   
    99   90   91 ar  
   100   90  100 1   
   101   91   92 1   
   102   92  101 1   
   103  102  103 1   
   104  102  110 1   
   105  103  104 1   
   106  103  106 1   
   107  103  111 1   
   108  104  105 2   
   109  104  121 1   
   110  106  107 1   
   111  106  108 1   
   112  106  112 1   
   113  107  109 1   
   114  107  113 1   
   115  107  114 1   
   116  108  115 1   
   117  108  116 1   
   118  108  117 1   
   119  109  118 1   
   120  109  119 1   
   121  109  120 1   
   122  121  122 1   
   123  121  127 1   
   124  122  123 1   
   125  122  125 1   
   126  122  128 1   
   127  123  124 2   
   128  123  132 1   
   129  125  126 1   
   130  125  129 1   
   131  125  130 1   
   132  126  131 1   
   133  132  133 1   
   134  132  137 1   
   135  133  134 1   
   136  133  136 1   
   137  133  138 1   
   138  134  135 2   
   139  134  142 1   
   140  136  139 1   
   141  136  140 1   
   142  136  141 1   
   143  142  143 1   
   144  142  147 1   
   145  143  144 1   
   146  143  146 1   
   147  143  148 1   
   148  144  145 2   
   149  144  152 1   
   150  146  149 1   
   151  146  150 1   
   152  146  151 1   
   153  152  153 1   
   154  152  161 1   
   155  153  154 1   
   156  153  156 1   
   157  153  162 1   
   158  154  155 2   
   159  154  167 1   
   160  156  157 1   
   161  156  163 1   
   162  156  164 1   
   163  157  158 1   
   164  157  165 1   
   165  157  166 1   
   166  158  159 1   
   167  158  160 1   
   168  167  168 1   
   169  167  172 1   
   170  168  169 1   
   171  168  170 1   
   172  168  171 1   
   173  174  175 1   
   174  174  176 1   
   175  177  178 1   
   176  177  179 1   
   177  180  181 1   
   178  180  182 1   
   179  183  184 1   
   180  183  185 1   
   181  186  187 1   
   182  186  188 1   
   183  189  190 1   
   184  189  191 1   
   185  192  193 1   
   186  192  194 1   
   187  195  196 1   
   188  195  197 1   
@<TRIPOS>SUBSTRUCTURE
     1 MOL         1 TEMP              0 ****  ****    0 ROOT
