@<TRIPOS>MOLECULE
MOL
  182   178     1     0     0
SMALL
resp


@<TRIPOS>ATOM
      1 C1          1.3410   -4.2170    6.4580 c3        1 MOL     -0.405356
      2 C2          1.3570   -3.9200    4.9570 c         1 MOL      0.730215
      3 O1          0.4390   -4.1980    4.1720 o         1 MOL     -0.616446
      4 H1          0.4100   -4.7200    6.7180 hc        1 MOL      0.122132
      5 H2          2.1840   -4.8600    6.7110 hc        1 MOL      0.122132
      6 H3          1.4160   -3.2820    7.0150 hc        1 MOL      0.122132
      7 N1          2.5220   -3.4130    4.4400 n         1 MOL     -0.534747
      8 C3          2.6370   -3.0280    3.0120 c3        1 MOL     -0.021471
      9 C4          2.9190   -4.2170    2.1400 c         1 MOL      0.585275
     10 O2          3.9580   -4.8370    2.2740 o         1 MOL     -0.531597
     11 C5          3.6850   -1.9880    2.8840 c3        1 MOL      0.234458
     12 C6          3.6310   -1.3370    1.5170 c         1 MOL      0.043074
     13 O3          4.1660   -0.2360    1.3370 o         1 MOL     -0.548973
     14 O4          3.0210   -1.8550    0.5720 o         1 MOL     -0.548973
     15 H4          3.2950   -3.1250    5.0160 hn        1 MOL      0.293838
     16 H5          1.6930   -2.5800    2.7050 h1        1 MOL      0.056089
     17 H6          4.6220   -2.5170    3.0610 hc        1 MOL      0.009874
     18 H7          3.5510   -1.2760    3.6950 hc        1 MOL      0.009874
     19 N2          1.9810   -4.5080    1.2210 n         1 MOL     -0.287103
     20 C7          2.1270   -5.5360    0.1890 c3        1 MOL      0.013490
     21 C8          3.3140   -5.5150   -0.7420 c         1 MOL      0.486658
     22 O5          3.8730   -6.5140   -1.0690 o         1 MOL     -0.524567
     23 C9          0.7670   -5.7470   -0.4840 c3        1 MOL     -0.191294
     24 C10         0.3510   -4.5150   -1.3190 c3        1 MOL      0.067788
     25 C11        -0.9440   -4.6380   -2.1000 c3        1 MOL     -0.026370
     26 C12        -1.4850   -3.3600   -2.6490 c3        1 MOL      0.147763
     27 N3         -2.7490   -3.4030   -3.4470 n4        1 MOL     -0.418052
     28 H8          1.2010   -3.8600    1.2410 hn        1 MOL      0.184551
     29 H9          2.2850   -6.5320    0.6020 h1        1 MOL      0.077085
     30 H10         0.0540   -5.9360    0.3190 hc        1 MOL      0.079502
     31 H11         0.8290   -6.6290   -1.1260 hc        1 MOL      0.079502
     32 H12         1.1930   -4.2440   -1.9690 hc        1 MOL      0.002618
     33 H13         0.2440   -3.6560   -0.6710 hc        1 MOL      0.002618
     34 H14        -1.6010   -4.9750   -1.3040 hc        1 MOL      0.021137
     35 H15        -0.8760   -5.3960   -2.8770 hc        1 MOL      0.021137
     36 H16        -0.6930   -2.9860   -3.3000 hx        1 MOL      0.041359
     37 H17        -1.6340   -2.6940   -1.7950 hx        1 MOL      0.041359
     38 H18        -3.4650   -3.9250   -2.9630 hn        1 MOL      0.287683
     39 H19        -3.1960   -2.5420   -3.7460 hn        1 MOL      0.287683
     40 H20        -2.7530   -3.8990   -4.3310 hn        1 MOL      0.287683
     41 N4          3.7550   -4.2710   -1.0880 n         1 MOL     -0.137663
     42 C13         4.9310   -4.0420   -2.0100 c3        1 MOL     -0.128265
     43 C14         6.0050   -3.1590   -1.3120 c         1 MOL      0.330747
     44 O6          6.9700   -2.7330   -1.9990 o         1 MOL     -0.473297
     45 C15         4.5300   -3.3980   -3.3500 c3        1 MOL      0.012400
     46 C16         4.0280   -1.9530   -3.3890 c         1 MOL      0.684167
     47 O7          3.9340   -1.4700   -4.5370 o         1 MOL     -0.701577
     48 O8          3.7330   -1.3400   -2.3470 o         1 MOL     -0.701577
     49 H21         3.4460   -3.4490   -0.5870 hn        1 MOL      0.030742
     50 H22         5.3990   -4.9820   -2.2820 h1        1 MOL      0.135361
     51 H23         3.7400   -4.0150   -3.7720 hc        1 MOL      0.022374
     52 H24         5.3320   -3.5020   -4.0810 hc        1 MOL      0.022374
     53 N5          5.7830   -2.7270   -0.0610 n         1 MOL      0.003644
     54 C17         6.7540   -1.8670    0.6080 c3        1 MOL     -0.547893
     55 C18         7.0130   -0.4550    0.1950 c         1 MOL      0.764351
     56 O9          7.6240    0.2490    0.9980 o         1 MOL     -0.595491
     57 H25         4.9620   -3.0720    0.4150 hn        1 MOL      0.158429
     58 H26         7.7080   -2.4060    0.6550 h1        1 MOL      0.192700
     59 H27         6.3250   -1.7850    1.6060 h1        1 MOL      0.192700
     60 N6          6.6780   -0.0490   -0.9930 n         1 MOL     -0.393347
     61 C19         6.8860    1.3280   -1.5520 c3        1 MOL     -0.049662
     62 C20         5.7800    2.2990   -1.1700 c         1 MOL      0.446780
     63 O10         4.6000    1.9680   -1.2240 o         1 MOL     -0.443491
     64 C21         6.8750    1.3330   -3.0500 c3        1 MOL      0.003516
     65 C22         7.9430    0.4560   -3.7100 c         1 MOL      0.563046
     66 N7          9.1910    0.7820   -3.4390 n         1 MOL     -0.776734
     67 O11         7.6220   -0.4830   -4.4610 o         1 MOL     -0.485869
     68 H28         6.3410   -0.7520   -1.6390 hn        1 MOL      0.278161
     69 H29         7.8160    1.6930   -1.1240 h1        1 MOL      0.044081
     70 H30         7.1230    2.3430   -3.3670 hc        1 MOL      0.000690
     71 H31         5.8990    1.1090   -3.4590 hc        1 MOL      0.000690
     72 H32         9.3700    1.7360   -3.1550 hn        1 MOL      0.373319
     73 H33         9.8890    0.0900   -3.6700 hn        1 MOL      0.373319
     74 N8          6.1270    3.6020   -1.0540 n         1 MOL     -0.207321
     75 C23         5.1530    4.6790   -1.0420 c3        1 MOL     -0.354919
     76 C24         4.2250    4.6350    0.2190 c         1 MOL      0.544058
     77 O12         4.7750    4.5630    1.3560 o         1 MOL     -0.504160
     78 H34         7.1020    3.8790   -1.0730 hn        1 MOL      0.271143
     79 H35         4.5520    4.7010   -1.9510 h1        1 MOL      0.140711
     80 H36         5.7790    5.5660   -0.9150 h1        1 MOL      0.140711
     81 N9          2.9200    4.6850    0.0280 n         1 MOL     -0.499261
     82 C25         2.0030    4.4790    1.1840 c3        1 MOL      0.110989
     83 C26         1.6740    2.9980    1.4850 c         1 MOL      0.674842
     84 O13         2.4180    2.1220    1.0810 o         1 MOL     -0.484362
     85 C27         0.7520    5.3410    0.8300 c3        1 MOL     -0.179616
     86 C28         1.0280    6.8310    0.5360 ca        1 MOL     -0.077452
     87 C29         1.9520    7.5960    1.3520 ca        1 MOL     -0.048090
     88 C30         0.0410    7.5290   -0.1940 ca        1 MOL     -0.048090
     89 C31         1.9150    8.9940    1.2450 ca        1 MOL     -0.322116
     90 C32         0.0710    8.8830   -0.3930 ca        1 MOL     -0.322116
     91 C33         1.0190    9.6590    0.3420 ca        1 MOL      0.378835
     92 O14         1.0480   11.0450    0.2310 oh        1 MOL     -0.478966
     93 H37         2.4920    4.9640   -0.8450 hn        1 MOL      0.352301
     94 H38         2.3840    4.8150    2.1450 h1        1 MOL      0.092917
     95 H39         0.0290    5.3350    1.6410 hc        1 MOL      0.062451
     96 H40         0.3170    4.9280   -0.0860 hc        1 MOL      0.062451
     97 H41         2.5760    7.0380    2.0240 ha        1 MOL      0.116675
     98 H42        -0.6990    6.8990   -0.6740 ha        1 MOL      0.116675
     99 H43         2.5060    9.6740    1.8480 ha        1 MOL      0.171922
    100 H44        -0.5940    9.3530   -1.1040 ha        1 MOL      0.171922
    101 H45         1.5060   11.4080    0.9860 ho        1 MOL      0.360884
    102 N10         0.6530    2.6940    2.2970 n         1 MOL     -0.824047
    103 C34         0.2010    1.3950    2.8010 c3        1 MOL      0.268746
    104 C35        -0.2770    0.4320    1.7710 c         1 MOL      0.564124
    105 O15         0.5010    0.1610    0.8360 o         1 MOL     -0.461388
    106 C36         1.1720    0.8440    3.8660 c3        1 MOL      0.184135
    107 C37         0.5390   -0.3620    4.5980 c3        1 MOL     -0.254642
    108 C38         1.7330    1.8760    4.7610 c3        1 MOL     -0.461940
    109 C39        -0.3690   -0.0400    5.7830 c3        1 MOL     -0.191037
    110 H46         0.2320    3.4930    2.7420 hn        1 MOL      0.353714
    111 H47        -0.7500    1.6150    3.2940 h1        1 MOL      0.012321
    112 H48         2.0110    0.3930    3.3270 hc        1 MOL      0.104908
    113 H49         1.3560   -0.9380    5.0380 hc        1 MOL      0.082786
    114 H50         0.1480   -1.0980    3.9010 hc        1 MOL      0.082786
    115 H51         2.2400    1.4430    5.6200 hc        1 MOL      0.133604
    116 H52         2.5200    2.3380    4.1550 hc        1 MOL      0.133604
    117 H53         0.9270    2.5440    5.0680 hc        1 MOL      0.133604
    118 H54        -0.7060   -0.8940    6.3750 hc        1 MOL      0.057464
    119 H55         0.1650    0.5860    6.4910 hc        1 MOL      0.057464
    120 H56        -1.2810    0.4840    5.4820 hc        1 MOL      0.057464
    121 N11        -1.4570   -0.1300    1.9540 n         1 MOL     -0.711078
    122 C40        -1.9160   -1.4310    1.3050 c3        1 MOL      0.300060
    123 C41        -3.2470   -1.4060    0.5400 c         1 MOL      0.516620
    124 O16        -3.6470   -2.3710   -0.1370 o         1 MOL     -0.513527
    125 C42        -2.0520   -2.5300    2.3850 c3        1 MOL      0.075178
    126 O17        -1.1300   -3.5470    2.0860 oh        1 MOL     -0.552183
    127 H57        -2.1400    0.2240    2.6110 hn        1 MOL      0.343682
    128 H58        -1.1510   -1.6240    0.5490 h1        1 MOL      0.061419
    129 H59        -3.0870   -2.8940    2.4070 h1        1 MOL      0.039925
    130 H60        -1.7660   -2.0990    3.3360 h1        1 MOL      0.039925
    131 H61        -0.7840   -3.7610    2.9600 ho        1 MOL      0.411462
    132 N12        -4.0870   -0.3750    0.7130 n         1 MOL     -0.586356
    133 C43        -5.3930   -0.1770    0.0720 c3        1 MOL      0.175974
    134 C44        -5.4290    0.5040   -1.3080 c         1 MOL      0.532479
    135 O18        -4.5900    1.3720   -1.5740 o         1 MOL     -0.560455
    136 C45        -6.2070    0.5980    1.1740 c3        1 MOL     -0.130774
    137 H62        -3.8940    0.3520    1.3860 hn        1 MOL      0.290930
    138 H63        -5.9520   -1.1050   -0.0380 h1        1 MOL      0.069135
    139 H64        -7.2520    0.8620    0.9940 hc        1 MOL      0.054564
    140 H65        -6.1310   -0.0350    2.0560 hc        1 MOL      0.054564
    141 H66        -5.6540    1.5040    1.4250 hc        1 MOL      0.054564
    142 N13        -6.3900    0.2560   -2.2140 n         1 MOL     -0.601484
    143 C46        -7.6310   -0.4370   -2.0040 c3        1 MOL      0.353669
    144 C47        -8.7000    0.3470   -2.8300 c         1 MOL      0.416202
    145 O19        -8.3890    1.2060   -3.7160 o         1 MOL     -0.539938
    146 C48        -7.5250   -1.8820   -2.5650 c3        1 MOL     -0.347295
    147 H67        -6.4180    0.7580   -3.0870 hn        1 MOL      0.332196
    148 H68        -7.8700   -0.5200   -0.9340 h1        1 MOL      0.002930
    149 H69        -6.7620   -2.4340   -2.0140 hc        1 MOL      0.090298
    150 H70        -8.4470   -2.4430   -2.4700 hc        1 MOL      0.090298
    151 H71        -7.1800   -1.7880   -3.6000 hc        1 MOL      0.090298
    152 N14        -9.9500    0.2120   -2.4980 n         1 MOL     -0.389367
    153 C49       -10.4670   -0.2390   -1.2040 c3        1 MOL     -0.353172
    154 C50       -10.1100    0.7110   -0.0140 c         1 MOL      0.506301
    155 O20        -9.8540    0.2190    1.0500 o         1 MOL     -0.502038
    156 C51       -11.9760   -0.4040   -1.2540 c3        1 MOL      0.380616
    157 C52       -12.5660   -1.0560    0.0490 c3        1 MOL     -0.452664
    158 C53       -14.0760   -0.9550    0.0190 c         1 MOL      0.768025
    159 O21       -14.6500    0.0830    0.4680 o         1 MOL     -0.689953
    160 O22       -14.7280   -1.8770   -0.5200 o         1 MOL     -0.689953
    161 H72       -10.5870    0.6950   -3.1070 hn        1 MOL      0.315581
    162 H73       -10.0480   -1.2240   -0.9690 h1        1 MOL      0.159747
    163 H74       -12.3370   -0.9350   -2.1300 hc        1 MOL     -0.036268
    164 H75       -12.4390    0.5700   -1.4170 hc        1 MOL     -0.036268
    165 H76       -12.4080   -0.4690    0.9470 hc        1 MOL      0.100530
    166 H77       -12.3330   -2.1060    0.2130 hc        1 MOL      0.100530
    167 N15       -10.0860    2.0030   -0.2470 n         1 MOL     -0.245342
    168 C54        -9.4970    2.9870    0.6700 c3        1 MOL     -0.238662
    169 H78       -10.2740    3.3810    1.3270 h1        1 MOL      0.109448
    170 H79        -8.7230    2.5080    1.2690 h1        1 MOL      0.109448
    171 H80        -9.0590    3.8040    0.0960 h1        1 MOL      0.109448
    172 H81       -10.5210    2.4160   -1.0530 hn        1 MOL      0.274807
    173 Ca1         2.5940    0.2850   -0.8150 Ca        1 MOL      1.684437
    174 O23         2.5760    1.0890   -3.4150 oh        1 MOL     -0.864109
    175 H82         2.8910    0.2910   -3.8290 ho        1 MOL      0.412440
    176 H83         2.7590    1.7820   -4.0560 ho        1 MOL      0.412440
    177 O24         1.0080    2.6400   -1.3670 oh        1 MOL     -0.864109
    178 H84         0.1120    2.8940   -1.1340 ho        1 MOL      0.412440
    179 H85         1.1180    2.9710   -2.2630 ho        1 MOL      0.412440
    180 O25         0.2830   -0.6710   -2.0160 oh        1 MOL     -0.864109
    181 H86        -0.5110   -0.1430   -1.9690 ho        1 MOL      0.412440
    182 H87         0.4360   -0.8000   -2.9570 ho        1 MOL      0.412440
@<TRIPOS>BOND
     1    1    2 1   
     2    1    4 1   
     3    1    5 1   
     4    1    6 1   
     5    2    3 2   
     6    2    7 1   
     7    7    8 1   
     8    7   15 1   
     9    8    9 1   
    10    8   11 1   
    11    8   16 1   
    12    9   10 2   
    13    9   19 1   
    14   11   12 1   
    15   11   17 1   
    16   11   18 1   
    17   12   13 1   
    18   12   14 1   
    19   19   20 1   
    20   19   28 1   
    21   20   21 1   
    22   20   23 1   
    23   20   29 1   
    24   21   22 2   
    25   21   41 1   
    26   23   24 1   
    27   23   30 1   
    28   23   31 1   
    29   24   25 1   
    30   24   32 1   
    31   24   33 1   
    32   25   26 1   
    33   25   34 1   
    34   25   35 1   
    35   26   27 1   
    36   26   36 1   
    37   26   37 1   
    38   27   38 1   
    39   27   39 1   
    40   27   40 1   
    41   41   42 1   
    42   41   49 1   
    43   42   43 1   
    44   42   45 1   
    45   42   50 1   
    46   43   44 2   
    47   43   53 1   
    48   45   46 1   
    49   45   51 1   
    50   45   52 1   
    51   46   47 1   
    52   46   48 1   
    53   53   54 1   
    54   53   57 1   
    55   54   55 1   
    56   54   58 1   
    57   54   59 1   
    58   55   56 2   
    59   55   60 1   
    60   60   61 1   
    61   60   68 1   
    62   61   62 1   
    63   61   64 1   
    64   61   69 1   
    65   62   63 2   
    66   62   74 1   
    67   64   65 1   
    68   64   70 1   
    69   64   71 1   
    70   65   66 1   
    71   65   67 2   
    72   66   72 1   
    73   66   73 1   
    74   74   75 1   
    75   74   78 1   
    76   75   76 1   
    77   75   79 1   
    78   75   80 1   
    79   76   77 2   
    80   76   81 1   
    81   81   82 1   
    82   81   93 1   
    83   82   83 1   
    84   82   85 1   
    85   82   94 1   
    86   83   84 2   
    87   83  102 1   
    88   85   86 1   
    89   85   95 1   
    90   85   96 1   
    91   86   87 ar  
    92   86   88 ar  
    93   87   89 ar  
    94   87   97 1   
    95   88   90 ar  
    96   88   98 1   
    97   89   91 ar  
    98   89   99 1   
    99   90   91 ar  
   100   90  100 1   
   101   91   92 1   
   102   92  101 1   
   103  102  103 1   
   104  102  110 1   
   105  103  104 1   
   106  103  106 1   
   107  103  111 1   
   108  104  105 2   
   109  104  121 1   
   110  106  107 1   
   111  106  108 1   
   112  106  112 1   
   113  107  109 1   
   114  107  113 1   
   115  107  114 1   
   116  108  115 1   
   117  108  116 1   
   118  108  117 1   
   119  109  118 1   
   120  109  119 1   
   121  109  120 1   
   122  121  122 1   
   123  121  127 1   
   124  122  123 1   
   125  122  125 1   
   126  122  128 1   
   127  123  124 2   
   128  123  132 1   
   129  125  126 1   
   130  125  129 1   
   131  125  130 1   
   132  126  131 1   
   133  132  133 1   
   134  132  137 1   
   135  133  134 1   
   136  133  136 1   
   137  133  138 1   
   138  134  135 2   
   139  134  142 1   
   140  136  139 1   
   141  136  140 1   
   142  136  141 1   
   143  142  143 1   
   144  142  147 1   
   145  143  144 1   
   146  143  146 1   
   147  143  148 1   
   148  144  145 2   
   149  144  152 1   
   150  146  149 1   
   151  146  150 1   
   152  146  151 1   
   153  152  153 1   
   154  152  161 1   
   155  153  154 1   
   156  153  156 1   
   157  153  162 1   
   158  154  155 2   
   159  154  167 1   
   160  156  157 1   
   161  156  163 1   
   162  156  164 1   
   163  157  158 1   
   164  157  165 1   
   165  157  166 1   
   166  158  159 1   
   167  158  160 1   
   168  167  168 1   
   169  167  172 1   
   170  168  169 1   
   171  168  170 1   
   172  168  171 1   
   173  174  175 1   
   174  174  176 1   
   175  177  178 1   
   176  177  179 1   
   177  180  181 1   
   178  180  182 1   
@<TRIPOS>SUBSTRUCTURE
     1 MOL         1 TEMP              0 ****  ****    0 ROOT
