@<TRIPOS>MOLECULE
MOL
  175   173     1     0     0
SMALL
resp


@<TRIPOS>ATOM
      1 C1         -6.7440    7.8540    1.5850 c3        1 MOL     -0.340407
      2 C2         -7.7130    7.0630    0.6200 c         1 MOL      0.674422
      3 O1         -7.7380    7.3710   -0.5750 o         1 MOL     -0.579438
      4 H1         -7.3330    8.3960    2.3250 hc        1 MOL      0.080173
      5 H2         -6.0810    7.1520    2.0900 hc        1 MOL      0.080173
      6 H3         -6.1520    8.5620    1.0050 hc        1 MOL      0.080173
      7 N1         -8.3470    6.0000    1.1380 n         1 MOL     -0.616296
      8 C3         -9.2670    5.1520    0.4330 c3        1 MOL      0.409231
      9 C4         -8.5920    4.1900   -0.6170 c         1 MOL      0.365229
     10 O2         -9.2820    3.5560   -1.4440 o         1 MOL     -0.455625
     11 C5        -10.0420    4.2900    1.4180 c3        1 MOL     -0.371192
     12 C6        -11.3550    3.7920    0.7090 c         1 MOL      0.684190
     13 O3        -11.6670    2.5610    0.8150 o         1 MOL     -0.707109
     14 O4        -12.0200    4.5590   -0.0040 o         1 MOL     -0.707109
     15 H4         -8.1490    5.7950    2.1000 hn        1 MOL      0.299483
     16 H5         -9.9530    5.7750   -0.1450 h1        1 MOL      0.006773
     17 H6        -10.3150    4.9640    2.2190 hc        1 MOL      0.051859
     18 H7         -9.4380    3.4550    1.7750 hc        1 MOL      0.051859
     19 N2         -7.2400    4.0200   -0.4640 n         1 MOL     -0.435024
     20 C7         -6.4760    3.0060   -1.0680 c3        1 MOL      0.487552
     21 C8         -5.5880    2.3640   -0.0510 c         1 MOL      0.345402
     22 O5         -5.1130    2.9120    0.9050 o         1 MOL     -0.519764
     23 C9         -5.7870    3.6110   -2.3020 c3        1 MOL     -0.261686
     24 H8         -6.7770    4.5000    0.2890 hn        1 MOL      0.202508
     25 H9         -7.0610    2.2060   -1.5170 h1        1 MOL     -0.051552
     26 H10        -6.5310    3.7270   -3.0840 hc        1 MOL      0.064292
     27 H11        -5.2530    4.5550   -2.2140 hc        1 MOL      0.064292
     28 H12        -5.0780    2.8090   -2.5050 hc        1 MOL      0.064292
     29 N3         -5.1170    1.1100   -0.1450 n         1 MOL     -0.232766
     30 C10        -5.3870    0.0170   -1.0950 c3        1 MOL     -0.225724
     31 C11        -5.4510   -1.3010   -0.4040 c         1 MOL      0.389602
     32 O6         -4.6120   -1.6810    0.4080 o         1 MOL     -0.443931
     33 C12        -4.4080   -0.0700   -2.2560 c3        1 MOL      0.068179
     34 C13        -3.0250   -0.4370   -1.8230 c         1 MOL      0.696819
     35 O7         -2.7030   -1.6130   -2.1220 o         1 MOL     -0.756983
     36 O8         -2.1910    0.2960   -1.2720 o         1 MOL     -0.756983
     37 H13        -4.5320    0.8190    0.6200 hn        1 MOL      0.253766
     38 H14        -6.3830    0.1630   -1.5130 h1        1 MOL      0.100439
     39 H15        -4.2940    0.8160   -2.8800 hc        1 MOL     -0.015382
     40 H16        -4.7970   -0.8320   -2.9260 hc        1 MOL     -0.015382
     41 N4         -6.4870   -2.0370   -0.7110 n         1 MOL     -0.276138
     42 C14        -6.7510   -3.3690   -0.1860 c3        1 MOL     -0.029213
     43 C15        -6.5770   -4.3250   -1.3820 c         1 MOL      0.502118
     44 O9         -7.5270   -4.6880   -2.0730 o         1 MOL     -0.564995
     45 H17        -7.1110   -1.7160   -1.4430 hn        1 MOL      0.291495
     46 H18        -7.8060   -3.3380    0.0860 h1        1 MOL      0.067530
     47 H19        -6.0900   -3.6790    0.6320 h1        1 MOL      0.067530
     48 N5         -5.4200   -4.9110   -1.6070 n         1 MOL     -0.432191
     49 C16        -4.0910   -4.5100   -1.2290 c3        1 MOL      0.221678
     50 C17        -3.7350   -5.2500    0.0830 c         1 MOL      0.343545
     51 O10        -3.6750   -6.4930   -0.0610 o         1 MOL     -0.547071
     52 C18        -3.0990   -4.7530   -2.3580 c3        1 MOL     -0.288263
     53 C19        -1.6840   -4.3310   -1.9550 c         1 MOL      0.802911
     54 N6         -0.7180   -4.4280   -2.8030 n         1 MOL     -0.895900
     55 O11        -1.4270   -3.9020   -0.8480 o         1 MOL     -0.620429
     56 H20        -5.4900   -5.7530   -2.1660 hn        1 MOL      0.293074
     57 H21        -4.0290   -3.4460   -1.0140 h1        1 MOL      0.080736
     58 H22        -3.4600   -4.1360   -3.1880 hc        1 MOL      0.072793
     59 H23        -3.0390   -5.8010   -2.6410 hc        1 MOL      0.072793
     60 H24        -0.7820   -4.7830   -3.7560 hn        1 MOL      0.394401
     61 H25         0.1730   -4.1300   -2.4190 hn        1 MOL      0.394401
     62 N7         -3.4840   -4.5670    1.1790 n         1 MOL     -0.044596
     63 C20        -3.0940   -5.1980    2.5050 c3        1 MOL     -0.448171
     64 C21        -1.6810   -5.5970    2.6300 c         1 MOL      0.625308
     65 O12        -1.4410   -6.2950    3.6300 o         1 MOL     -0.591389
     66 H26        -3.5530   -3.5680    1.0800 hn        1 MOL      0.121039
     67 H27        -3.6360   -6.1160    2.7310 h1        1 MOL      0.172329
     68 H28        -3.3140   -4.5090    3.3180 h1        1 MOL      0.172329
     69 N8         -0.7530   -5.2310    1.7620 n         1 MOL     -0.343751
     70 C22         0.6950   -5.2720    1.9360 c3        1 MOL     -0.006804
     71 C23         1.3730   -3.9110    1.8070 c         1 MOL      0.443130
     72 O13         0.8690   -3.0910    1.0780 o         1 MOL     -0.612563
     73 C24         1.3510   -6.2580    0.8980 c3        1 MOL      0.373597
     74 C25         0.8090   -7.7400    1.1330 c3        1 MOL     -0.501828
     75 O14         1.1750   -5.9630   -0.4500 oh        1 MOL     -0.630117
     76 H29        -1.0890   -4.8790    0.8770 hn        1 MOL      0.311488
     77 H30         0.9020   -5.5930    2.9630 h1        1 MOL      0.029669
     78 H31         2.4190   -6.2990    1.0980 h1        1 MOL     -0.021155
     79 H32         1.8290   -5.3040   -0.6970 ho        1 MOL      0.466132
     80 H33        -0.2680   -7.6860    1.0320 hc        1 MOL      0.127137
     81 H34         1.2260   -8.3880    0.3650 hc        1 MOL      0.127137
     82 H35         1.1980   -8.0550    2.1110 hc        1 MOL      0.127137
     83 N9          2.5420   -3.8110    2.3290 n         1 MOL     -0.203003
     84 C26         3.4560   -2.6550    2.1300 c3        1 MOL      0.222498
     85 C27         4.3110   -2.7610    0.9090 c         1 MOL      0.255004
     86 O15         5.0990   -3.7090    0.9050 o         1 MOL     -0.535452
     87 C28         4.1880   -2.3770    3.4080 c3        1 MOL      0.155436
     88 C29         5.0770   -1.1510    3.2370 c3        1 MOL     -0.237530
     89 C30         3.2570   -2.2200    4.6060 c3        1 MOL     -0.351449
     90 C31         4.3640    0.1450    2.7750 c3        1 MOL     -0.135280
     91 H36         3.0160   -4.6470    2.6350 hn        1 MOL      0.193978
     92 H37         2.8760   -1.7630    1.9010 h1        1 MOL      0.008623
     93 H38         4.8420   -3.2380    3.5710 hc        1 MOL     -0.022794
     94 H39         5.8600   -1.2860    2.4870 hc        1 MOL      0.068513
     95 H40         5.4620   -0.9360    4.2290 hc        1 MOL      0.068513
     96 H41         3.7260   -1.9820    5.5610 hc        1 MOL      0.084520
     97 H42         2.5100   -1.4560    4.3740 hc        1 MOL      0.084520
     98 H43         2.5990   -3.0940    4.6230 hc        1 MOL      0.084520
     99 H44         4.9770    1.0020    3.0570 hc        1 MOL      0.040707
    100 H45         4.0960    0.0800    1.7150 hc        1 MOL      0.040707
    101 H46         3.4330    0.2230    3.3130 hc        1 MOL      0.040707
    102 N10         4.2270   -1.9120   -0.1020 n         1 MOL     -0.122423
    103 C32         4.8570   -2.1480   -1.3960 c3        1 MOL      0.075871
    104 C33         5.9910   -1.1440   -1.6980 c         1 MOL      0.508380
    105 O16         6.6980   -1.4290   -2.7020 o         1 MOL     -0.566082
    106 C34         3.7720   -2.3100   -2.4370 c3        1 MOL     -0.191439
    107 C35         2.7040   -3.2680   -1.9130 c         1 MOL      0.739353
    108 O17         3.0160   -4.4170   -1.4370 o         1 MOL     -0.705193
    109 O18         1.5030   -2.9240   -1.9420 o         1 MOL     -0.705193
    110 H47         3.4840   -1.2380   -0.0310 hn        1 MOL      0.196342
    111 H48         5.3600   -3.1120   -1.3090 h1        1 MOL      0.088577
    112 H49         4.1600   -2.5910   -3.4230 hc        1 MOL      0.028874
    113 H50         3.2400   -1.3650   -2.5040 hc        1 MOL      0.028874
    114 N11         6.2400   -0.1960   -0.8550 n         1 MOL     -0.474912
    115 C36         7.0460    0.9720   -1.1220 c3        1 MOL      0.057059
    116 C37         6.4680    2.1470   -0.3340 c         1 MOL      0.659354
    117 O19         6.2240    2.0630    0.8590 o         1 MOL     -0.548681
    118 C38         8.4440    0.5180   -0.6880 c3        1 MOL     -0.176747
    119 C39         9.4540    1.6630   -0.6970 ca        1 MOL     -0.011072
    120 C40         9.6940    2.5000    0.4300 ca        1 MOL     -0.059948
    121 C41        10.1250    1.9600   -1.9480 ca        1 MOL     -0.059948
    122 C42        10.6960    3.5140    0.3450 ca        1 MOL     -0.197418
    123 C43        11.0090    3.0400   -2.0210 ca        1 MOL     -0.197418
    124 C44        11.3260    3.8070   -0.8490 ca        1 MOL     -0.047475
    125 H51         5.7080   -0.2240    0.0090 hn        1 MOL      0.329374
    126 H52         7.1460    1.1570   -2.1900 h1        1 MOL      0.087979
    127 H53         8.7240   -0.2670   -1.3830 hc        1 MOL      0.098284
    128 H54         8.3170    0.0810    0.3010 hc        1 MOL      0.098284
    129 H55         9.2000    2.2740    1.3630 ha        1 MOL      0.112650
    130 H56         9.9650    1.3870   -2.8460 ha        1 MOL      0.112650
    131 H57        10.7590    4.1720    1.2020 ha        1 MOL      0.123171
    132 H58        11.5720    3.2330   -2.9240 ha        1 MOL      0.123171
    133 H59        12.0000    4.6400   -0.9220 ha        1 MOL      0.094183
    134 N12         6.3650    3.3820   -0.9450 n         1 MOL     -0.556868
    135 C45         6.1940    4.6460   -0.1790 c3        1 MOL      0.402013
    136 C46         4.7450    5.0600    0.1200 c         1 MOL      0.345817
    137 O20         4.4620    6.2080    0.4100 o         1 MOL     -0.549472
    138 C47         6.8740    5.7280   -1.0340 c3        1 MOL     -0.265663
    139 C48         7.7450    5.0100   -2.0870 c3        1 MOL      0.025655
    140 C49         6.8680    3.7590   -2.2850 c3        1 MOL     -0.166078
    141 H60         6.6900    4.5790    0.7890 h1        1 MOL      0.016028
    142 H61         6.0680    6.2350   -1.5750 hc        1 MOL      0.089976
    143 H62         7.4360    6.4110   -0.4070 hc        1 MOL      0.089976
    144 H63         7.7640    5.5040   -3.0610 hc        1 MOL      0.036017
    145 H64         8.7090    4.7390   -1.6740 hc        1 MOL      0.036017
    146 H65         5.9750    3.9690   -2.8750 h1        1 MOL      0.117933
    147 H66         7.5160    3.0830   -2.8410 h1        1 MOL      0.117933
    148 N13         3.8130    4.1160    0.0710 n         1 MOL     -0.104853
    149 C50         2.3450    4.2850    0.3120 c3        1 MOL     -0.449816
    150 C51         2.1180    4.7240    1.7440 c         1 MOL      0.658405
    151 O21         1.1420    5.3430    2.1260 o         1 MOL     -0.570556
    152 C52         1.5260    3.0050   -0.0100 c3        1 MOL     -0.053062
    153 C53         1.9280    1.9030    0.9230 c3        1 MOL     -0.353874
    154 C54         1.4190    0.5670    0.4810 c         1 MOL      0.807772
    155 O22         0.3810    0.1840    1.0490 o         1 MOL     -0.734903
    156 O23         2.0660   -0.0900   -0.3400 o         1 MOL     -0.734903
    157 H67         4.1560    3.1840   -0.1080 hn        1 MOL      0.194937
    158 H68         2.0960    5.1490   -0.3020 h1        1 MOL      0.200777
    159 H69         1.6910    2.6130   -1.0060 hc        1 MOL      0.115561
    160 H70         0.4820    3.2660    0.1330 hc        1 MOL      0.115561
    161 H71         1.4500    2.0910    1.8900 hc        1 MOL      0.089971
    162 H72         3.0130    1.8040    0.9740 hc        1 MOL      0.089971
    163 N14         3.0580    4.4880    2.5990 n         1 MOL     -0.152301
    164 C55         3.0670    5.0000    3.9220 c3        1 MOL     -0.089888
    165 H73         2.2520    5.7150    4.0400 h1        1 MOL      0.056348
    166 H74         2.9360    4.1820    4.6300 h1        1 MOL      0.056348
    167 H75         4.0170    5.4990    4.1130 h1        1 MOL      0.056348
    168 H76         3.8860    4.0760    2.1950 hn        1 MOL      0.143901
    169 Ca1        -0.3460   -1.6200   -0.7010 Ca        1 MOL      1.673573
    170 O24         0.3180   -0.0380   -2.8980 oh        1 MOL     -0.729278
    171 H77         0.5790    0.7670   -3.3420 ho        1 MOL      0.366879
    172 H78         0.4360   -0.7310   -3.5430 ho        1 MOL      0.366879
    173 O25        -2.0370   -1.7000    1.3920 oh        1 MOL     -0.729278
    174 H79        -1.7190   -1.0670    2.0360 ho        1 MOL      0.366879
    175 H80        -2.8700   -1.3390    1.0940 ho        1 MOL      0.366879
@<TRIPOS>BOND
     1    1    2 1   
     2    1    4 1   
     3    1    5 1   
     4    1    6 1   
     5    2    3 2   
     6    2    7 1   
     7    7    8 1   
     8    7   15 1   
     9    8    9 1   
    10    8   11 1   
    11    8   16 1   
    12    9   10 2   
    13    9   19 1   
    14   11   12 1   
    15   11   17 1   
    16   11   18 1   
    17   12   13 1   
    18   12   14 1   
    19   19   20 1   
    20   19   24 1   
    21   20   21 1   
    22   20   23 1   
    23   20   25 1   
    24   21   22 2   
    25   21   29 1   
    26   23   26 1   
    27   23   27 1   
    28   23   28 1   
    29   29   30 1   
    30   29   37 1   
    31   30   31 1   
    32   30   33 1   
    33   30   38 1   
    34   31   32 2   
    35   31   41 1   
    36   33   34 1   
    37   33   39 1   
    38   33   40 1   
    39   34   35 1   
    40   34   36 1   
    41   41   42 1   
    42   41   45 1   
    43   42   43 1   
    44   42   46 1   
    45   42   47 1   
    46   43   44 2   
    47   43   48 1   
    48   48   49 1   
    49   48   56 1   
    50   49   50 1   
    51   49   52 1   
    52   49   57 1   
    53   50   51 2   
    54   50   62 1   
    55   52   53 1   
    56   52   58 1   
    57   52   59 1   
    58   53   54 1   
    59   53   55 2   
    60   54   60 1   
    61   54   61 1   
    62   62   63 1   
    63   62   66 1   
    64   63   64 1   
    65   63   67 1   
    66   63   68 1   
    67   64   65 2   
    68   64   69 1   
    69   69   70 1   
    70   69   76 1   
    71   70   71 1   
    72   70   73 1   
    73   70   77 1   
    74   71   72 2   
    75   71   83 1   
    76   73   74 1   
    77   73   75 1   
    78   73   78 1   
    79   74   80 1   
    80   74   81 1   
    81   74   82 1   
    82   75   79 1   
    83   83   84 1   
    84   83   91 1   
    85   84   85 1   
    86   84   87 1   
    87   84   92 1   
    88   85   86 2   
    89   85  102 1   
    90   87   88 1   
    91   87   89 1   
    92   87   93 1   
    93   88   90 1   
    94   88   94 1   
    95   88   95 1   
    96   89   96 1   
    97   89   97 1   
    98   89   98 1   
    99   90   99 1   
   100   90  100 1   
   101   90  101 1   
   102  102  103 1   
   103  102  110 1   
   104  103  104 1   
   105  103  106 1   
   106  103  111 1   
   107  104  105 2   
   108  104  114 1   
   109  106  107 1   
   110  106  112 1   
   111  106  113 1   
   112  107  108 1   
   113  107  109 1   
   114  114  115 1   
   115  114  125 1   
   116  115  116 1   
   117  115  118 1   
   118  115  126 1   
   119  116  117 2   
   120  116  134 1   
   121  118  119 1   
   122  118  127 1   
   123  118  128 1   
   124  119  120 ar  
   125  119  121 ar  
   126  120  122 ar  
   127  120  129 1   
   128  121  123 ar  
   129  121  130 1   
   130  122  124 ar  
   131  122  131 1   
   132  123  124 ar  
   133  123  132 1   
   134  124  133 1   
   135  134  135 1   
   136  134  140 1   
   137  135  136 1   
   138  135  138 1   
   139  135  141 1   
   140  136  137 2   
   141  136  148 1   
   142  138  139 1   
   143  138  142 1   
   144  138  143 1   
   145  139  140 1   
   146  139  144 1   
   147  139  145 1   
   148  140  146 1   
   149  140  147 1   
   150  148  149 1   
   151  148  157 1   
   152  149  150 1   
   153  149  152 1   
   154  149  158 1   
   155  150  151 2   
   156  150  163 1   
   157  152  153 1   
   158  152  159 1   
   159  152  160 1   
   160  153  154 1   
   161  153  161 1   
   162  153  162 1   
   163  154  155 1   
   164  154  156 1   
   165  163  164 1   
   166  163  168 1   
   167  164  165 1   
   168  164  166 1   
   169  164  167 1   
   170  170  171 1   
   171  170  172 1   
   172  173  174 1   
   173  173  175 1   
@<TRIPOS>SUBSTRUCTURE
     1 MOL         1 TEMP              0 ****  ****    0 ROOT
