@<TRIPOS>MOLECULE
MOL
  184   179     1     0     0
SMALL
resp


@<TRIPOS>ATOM
      1 C1          8.8250    7.7120   -0.8870 c3        1 MOL     -0.352024
      2 C2          8.3770    6.5830    0.0390 c         1 MOL      0.704870
      3 O1          8.4260    6.7350    1.2610 o         1 MOL     -0.618628
      4 H1          9.1160    7.2960   -1.8520 hc        1 MOL      0.098837
      5 H2          8.0040    8.4140   -1.0280 hc        1 MOL      0.098837
      6 H3          9.6770    8.2290   -0.4450 hc        1 MOL      0.098837
      7 N1          7.9680    5.3890   -0.3960 n         1 MOL     -0.360661
      8 C3          7.8020    4.7850   -1.7760 c3        1 MOL     -0.309997
      9 C4          8.0440    3.2700   -1.7920 c         1 MOL      0.670136
     10 O2          7.5500    2.6020   -0.8480 o         1 MOL     -0.551196
     11 C5          6.4560    5.1610   -2.4280 c3        1 MOL     -0.017785
     12 C6          5.2020    5.0700   -1.6200 c         1 MOL      0.531295
     13 O3          4.2570    5.7630   -2.0450 o         1 MOL     -0.620938
     14 O4          4.9670    4.1170   -0.8210 o         1 MOL     -0.620938
     15 H4          7.8210    4.7790    0.3960 hn        1 MOL      0.198352
     16 H5          8.5100    5.2700   -2.4300 h1        1 MOL      0.112255
     17 H6          6.4310    4.5620   -3.3480 hc        1 MOL      0.040701
     18 H7          6.6390    6.1910   -2.7370 hc        1 MOL      0.040701
     19 N2          8.6800    2.7390   -2.8210 n         1 MOL     -0.484617
     20 C7          8.8820    1.4070   -3.0740 c3        1 MOL      0.115103
     21 C8          9.6590    0.6960   -1.9510 c         1 MOL      0.572623
     22 O5         10.9080    0.9740   -1.8140 o         1 MOL     -0.544782
     23 C9          9.3930    1.2480   -4.5170 c3        1 MOL     -0.359352
     24 H8          8.8470    3.3460   -3.6090 hn        1 MOL      0.307982
     25 H9          7.9330    0.8780   -3.0650 h1        1 MOL      0.070507
     26 H10         8.5330    1.5290   -5.1330 hc        1 MOL      0.109630
     27 H11        10.2010    1.9440   -4.7430 hc        1 MOL      0.109630
     28 H12         9.8040    0.2680   -4.7580 hc        1 MOL      0.109630
     29 N3          8.9340   -0.2390   -1.3070 n         1 MOL     -0.307470
     30 C10         9.4600   -1.0870   -0.2690 c3        1 MOL     -0.104591
     31 C11         8.7180   -2.4770   -0.0850 c         1 MOL      0.549191
     32 O6          7.6130   -2.6370   -0.6620 o         1 MOL     -0.498274
     33 C12         9.4030   -0.3750    1.1150 c3        1 MOL     -0.242139
     34 C13         8.0420   -0.1450    1.7540 c         1 MOL      0.755135
     35 O7          7.4890   -1.0850    2.4150 o         1 MOL     -0.710419
     36 O8          7.5810    1.0010    1.7020 o         1 MOL     -0.710419
     37 H13         7.9630   -0.3750   -1.5570 hn        1 MOL      0.133421
     38 H14        10.5100   -1.2170   -0.5330 h1        1 MOL      0.078622
     39 H15         9.7740    0.6440    0.9740 hc        1 MOL      0.086480
     40 H16        10.1020   -0.8340    1.8150 hc        1 MOL      0.086480
     41 N4          9.3620   -3.4300    0.5620 n         1 MOL     -0.420433
     42 C14         8.8760   -4.8510    0.6960 c3        1 MOL     -0.065964
     43 C15         7.4850   -4.9020    1.3200 c         1 MOL      0.543841
     44 O9          6.7690   -5.8750    1.1010 o         1 MOL     -0.537305
     45 H17        10.2410   -3.2020    0.9980 hn        1 MOL      0.311301
     46 H18         9.5500   -5.3240    1.4050 h1        1 MOL      0.100290
     47 H19         8.9000   -5.4170   -0.2280 h1        1 MOL      0.100290
     48 N5          6.9340   -3.8770    2.0560 n         1 MOL     -0.493546
     49 C16         5.5620   -3.8990    2.5280 c3        1 MOL      0.037622
     50 C17         4.5640   -3.4070    1.5780 c         1 MOL      0.684132
     51 O10         3.4870   -3.0000    2.0100 o         1 MOL     -0.598758
     52 C18         5.3860   -3.3310    3.9680 c3        1 MOL     -0.072275
     53 C19         4.2530   -3.9300    4.7590 c         1 MOL      0.573386
     54 N6          3.1460   -3.2700    4.8290 n         1 MOL     -0.616010
     55 O11         4.3560   -5.0420    5.1630 o         1 MOL     -0.558092
     56 H20         7.5040   -3.1200    2.3930 hn        1 MOL      0.287627
     57 H21         5.2560   -4.9330    2.6470 h1        1 MOL      0.137771
     58 H22         5.3250   -2.2390    3.9910 hc        1 MOL      0.001131
     59 H23         6.1920   -3.6310    4.6270 hc        1 MOL      0.001131
     60 H24         3.0280   -2.3640    4.3920 hn        1 MOL      0.304096
     61 H25         2.3960   -3.6130    5.4000 hn        1 MOL      0.304096
     62 N7          4.9030   -3.3840    0.2820 n         1 MOL     -0.566331
     63 C20         3.8840   -3.0340   -0.7630 c3        1 MOL      0.121240
     64 C21         2.8900   -4.2030   -1.0350 c         1 MOL      0.592422
     65 O12         3.3920   -5.3420   -0.9320 o         1 MOL     -0.555200
     66 H26         5.7970   -3.6850   -0.0530 hn        1 MOL      0.353133
     67 H27         4.3250   -2.9050   -1.7590 h1        1 MOL      0.022216
     68 H28         3.3800   -2.1070   -0.4720 h1        1 MOL      0.022216
     69 N8          1.5800   -4.0230   -1.3090 n         1 MOL     -0.593583
     70 C22         1.0120   -2.7920   -1.8700 c3        1 MOL     -0.064710
     71 C23        -0.5220   -2.6390   -1.5620 c         1 MOL      0.566023
     72 O13        -1.2520   -3.5700   -1.9150 o         1 MOL     -0.530023
     73 C24         1.2280   -2.7500   -3.3790 c3        1 MOL      0.350125
     74 C25         0.8610   -1.3750   -4.0740 c3        1 MOL     -0.219291
     75 O14         2.5810   -2.9880   -3.7260 oh        1 MOL     -0.636993
     76 H29         1.0610   -4.8730   -1.1350 hn        1 MOL      0.358396
     77 H30         1.4470   -1.9140   -1.4040 h1        1 MOL      0.070604
     78 H31         0.6410   -3.5590   -3.8140 h1        1 MOL      0.019785
     79 H32         2.6940   -3.9340   -3.8250 ho        1 MOL      0.403905
     80 H33        -0.1580   -1.2550   -4.4360 hc        1 MOL      0.066697
     81 H34         0.9430   -0.5230   -3.4070 hc        1 MOL      0.066697
     82 H35         1.4590   -1.2900   -4.9730 hc        1 MOL      0.066697
     83 N9         -0.9210   -1.6020   -0.9340 n         1 MOL     -0.467680
     84 C26        -2.2790   -1.2780   -0.4680 c3        1 MOL      0.027599
     85 C27        -2.7200    0.1180   -0.9230 c         1 MOL      0.554412
     86 O15        -2.0520    1.0770   -0.5990 o         1 MOL     -0.567288
     87 C28        -2.3160   -1.3390    1.0640 c3        1 MOL      0.222686
     88 C29        -1.7300   -2.5540    1.7760 c3        1 MOL     -0.086581
     89 C30        -3.7330   -1.0230    1.6000 c3        1 MOL     -0.246287
     90 C31        -1.1710   -2.4740    3.1680 c3        1 MOL     -0.165041
     91 H36        -0.3170   -0.8190   -0.7240 hn        1 MOL      0.227437
     92 H37        -2.9600   -2.0580   -0.7920 h1        1 MOL      0.106812
     93 H38        -1.6720   -0.5260    1.3930 hc        1 MOL     -0.041467
     94 H39        -1.0160   -3.0660    1.1370 hc        1 MOL      0.048534
     95 H40        -2.5600   -3.2560    1.7400 hc        1 MOL      0.048534
     96 H41        -4.4310   -1.8050    1.3040 hc        1 MOL      0.066596
     97 H42        -3.7080   -1.0360    2.6810 hc        1 MOL      0.066596
     98 H43        -4.1180   -0.0530    1.2830 hc        1 MOL      0.066596
     99 H44        -0.9900   -3.4310    3.6580 hc        1 MOL      0.038682
    100 H45        -0.1430   -2.1120    3.1520 hc        1 MOL      0.038682
    101 H46        -1.7590   -1.7510    3.7270 hc        1 MOL      0.038682
    102 N10        -3.8700    0.2770   -1.5830 n         1 MOL     -0.425600
    103 C32        -4.9250   -0.7600   -1.6850 c3        1 MOL      0.034191
    104 C33        -6.3320   -0.1210   -1.6360 c         1 MOL      0.683572
    105 O16        -6.5360    0.8530   -2.4120 o         1 MOL     -0.539548
    106 C34        -4.7790   -1.6220   -2.9740 c3        1 MOL     -0.371834
    107 C35        -5.6850   -2.8410   -3.0810 c         1 MOL      0.806516
    108 O17        -6.0010   -3.2360   -4.2130 o         1 MOL     -0.729454
    109 O18        -6.1330   -3.5030   -2.0620 o         1 MOL     -0.729454
    110 H47        -4.0290    1.1260   -2.1050 hn        1 MOL      0.304103
    111 H48        -4.9030   -1.3610   -0.7670 h1        1 MOL     -0.041446
    112 H49        -3.7680   -2.0080   -3.0270 hc        1 MOL      0.089274
    113 H50        -5.1070   -1.0000   -3.8160 hc        1 MOL      0.089274
    114 N11        -7.2960   -0.7550   -0.9250 n         1 MOL     -0.691830
    115 C36        -8.7020   -0.4150   -0.9470 c3        1 MOL      0.356026
    116 C37        -9.4380   -1.2030    0.1070 c         1 MOL      0.281378
    117 O19        -9.1890   -2.3470    0.3120 o         1 MOL     -0.509133
    118 C38        -9.2510   -0.6550   -2.4000 c3        1 MOL     -0.121587
    119 C39       -10.7520   -0.7970   -2.5640 ca        1 MOL      0.074426
    120 C40       -11.3960   -2.0270   -2.4690 ca        1 MOL     -0.159456
    121 C41       -11.4970    0.3750   -2.8980 ca        1 MOL     -0.159456
    122 C42       -12.8190   -2.1040   -2.6130 ca        1 MOL     -0.118706
    123 C43       -12.8880    0.2970   -3.0440 ca        1 MOL     -0.118706
    124 C44       -13.5600   -0.9590   -2.8890 ca        1 MOL     -0.135097
    125 H51        -6.9910   -1.6950   -0.6870 hn        1 MOL      0.350838
    126 H52        -8.7460    0.6570   -0.7450 h1        1 MOL      0.014633
    127 H53        -8.8460   -1.6430   -2.6240 hc        1 MOL      0.070289
    128 H54        -8.8110    0.1080   -3.0530 hc        1 MOL      0.070289
    129 H55       -10.8820   -2.9540   -2.2290 ha        1 MOL      0.145368
    130 H56       -11.0150    1.3360   -2.9740 ha        1 MOL      0.145368
    131 H57       -13.3080   -3.0680   -2.5060 ha        1 MOL      0.098511
    132 H58       -13.4430    1.1680   -3.3680 ha        1 MOL      0.098511
    133 H59       -14.6110   -1.0870   -3.1020 ha        1 MOL      0.090784
    134 N12       -10.2490   -0.5170    0.9240 n         1 MOL      0.044684
    135 C45       -10.7970    0.8740    0.6970 c3        1 MOL      0.103269
    136 C46        -9.9440    1.9530    1.3760 c         1 MOL      0.601110
    137 O20       -10.4000    3.0390    1.2630 o         1 MOL     -0.548646
    138 C47       -12.2320    0.7710    1.2490 c3        1 MOL     -0.175859
    139 C48       -12.1690   -0.2700    2.3620 c3        1 MOL     -0.032694
    140 C49       -11.0240   -1.1490    1.9820 c3        1 MOL     -0.035651
    141 H60       -10.8240    1.0810   -0.3730 h1        1 MOL     -0.022984
    142 H61       -12.5130    1.7490    1.6440 hc        1 MOL      0.056805
    143 H62       -12.9450    0.4490    0.4870 hc        1 MOL      0.056805
    144 H63       -11.8940    0.1580    3.3370 hc        1 MOL      0.023923
    145 H64       -13.0860   -0.8490    2.3800 hc        1 MOL      0.023923
    146 H65       -10.4330   -1.3420    2.8770 h1        1 MOL      0.032496
    147 H66       -11.3720   -2.0910    1.5470 h1        1 MOL      0.032496
    148 N13        -8.8380    1.6830    2.0610 n         1 MOL     -0.530565
    149 C50        -7.8570    2.6100    2.5820 c3        1 MOL      0.339062
    150 C51        -7.6580    2.4530    4.1070 c         1 MOL      0.349040
    151 O21        -7.7150    1.3850    4.6430 o         1 MOL     -0.540709
    152 C52        -6.5620    2.5990    1.7500 c3        1 MOL     -0.217364
    153 C53        -6.7090    3.0700    0.2620 c3        1 MOL      0.009039
    154 C54        -6.9640    4.5810    0.2390 c         1 MOL      0.639462
    155 O22        -6.4360    5.3450    1.1170 o         1 MOL     -0.710037
    156 O23        -7.7590    5.0190   -0.6390 o         1 MOL     -0.710037
    157 H67        -8.6730    0.6970    2.1540 hn        1 MOL      0.227556
    158 H68        -8.2690    3.6080    2.4420 h1        1 MOL      0.045130
    159 H69        -6.2930    1.5420    1.7500 hc        1 MOL      0.056364
    160 H70        -5.7350    3.1930    2.1240 hc        1 MOL      0.056364
    161 H71        -7.4210    2.5210   -0.3540 hc        1 MOL     -0.019839
    162 H72        -5.7470    2.8990   -0.2320 hc        1 MOL     -0.019839
    163 N14        -7.2780    3.4750    4.9000 n         1 MOL     -0.363169
    164 C55        -6.9160    4.8760    4.6140 c3        1 MOL     -0.064623
    165 H73        -6.2040    4.9060    3.7900 h1        1 MOL      0.058239
    166 H74        -7.8110    5.4350    4.3420 h1        1 MOL      0.058239
    167 H75        -6.4640    5.3230    5.5000 h1        1 MOL      0.058239
    168 H76        -7.3380    3.2370    5.8820 hn        1 MOL      0.259317
    169 Ca1         5.3660    2.0800    0.7090 Ca        1 MOL      1.819995
    170 O24         6.3900    3.7490    2.4290 oh        1 MOL     -0.941146
    171 O25         5.8860   -0.1450   -1.0130 oh        1 MOL     -0.941146
    172 H77         7.3160    4.0090    2.4250 ho        1 MOL      0.461326
    173 H78         6.2560   -1.0100   -0.8680 ho        1 MOL      0.461326
    174 H79         6.0120    4.1890    3.1850 ho        1 MOL      0.461326
    175 H80         5.5020   -0.1940   -1.8880 ho        1 MOL      0.461326
    176 O26         3.0790    2.8510    1.7180 oh        1 MOL     -0.941146
    177 H81         2.1960    3.0270    1.3900 ho        1 MOL      0.461326
    178 H82         3.0090    2.9710    2.6710 ho        1 MOL      0.461326
    179 O27         3.0780    1.0650   -0.5440 oh        1 MOL     -0.941146
    180 H83         2.5640    1.3550   -1.3010 ho        1 MOL      0.461326
    181 H84         2.4500    0.6220    0.0170 ho        1 MOL      0.461326
    182 O28         4.8820   -0.0830    2.2860 oh        1 MOL     -0.941146
    183 H85         5.7150   -0.4780    2.5420 ho        1 MOL      0.461326
    184 H86         4.2210   -0.6890    2.6110 ho        1 MOL      0.461326
@<TRIPOS>BOND
     1    1    2 1   
     2    1    4 1   
     3    1    5 1   
     4    1    6 1   
     5    2    3 2   
     6    2    7 1   
     7    7    8 1   
     8    7   15 1   
     9    8    9 1   
    10    8   11 1   
    11    8   16 1   
    12    9   10 2   
    13    9   19 1   
    14   11   12 1   
    15   11   17 1   
    16   11   18 1   
    17   12   13 1   
    18   12   14 1   
    19   19   20 1   
    20   19   24 1   
    21   20   21 1   
    22   20   23 1   
    23   20   25 1   
    24   21   22 2   
    25   21   29 1   
    26   23   26 1   
    27   23   27 1   
    28   23   28 1   
    29   29   30 1   
    30   29   37 1   
    31   30   31 1   
    32   30   33 1   
    33   30   38 1   
    34   31   32 2   
    35   31   41 1   
    36   33   34 1   
    37   33   39 1   
    38   33   40 1   
    39   34   35 1   
    40   34   36 1   
    41   41   42 1   
    42   41   45 1   
    43   42   43 1   
    44   42   46 1   
    45   42   47 1   
    46   43   44 2   
    47   43   48 1   
    48   48   49 1   
    49   48   56 1   
    50   49   50 1   
    51   49   52 1   
    52   49   57 1   
    53   50   51 2   
    54   50   62 1   
    55   52   53 1   
    56   52   58 1   
    57   52   59 1   
    58   53   54 1   
    59   53   55 2   
    60   54   60 1   
    61   54   61 1   
    62   62   63 1   
    63   62   66 1   
    64   63   64 1   
    65   63   67 1   
    66   63   68 1   
    67   64   65 2   
    68   64   69 1   
    69   69   70 1   
    70   69   76 1   
    71   70   71 1   
    72   70   73 1   
    73   70   77 1   
    74   71   72 2   
    75   71   83 1   
    76   73   74 1   
    77   73   75 1   
    78   73   78 1   
    79   74   80 1   
    80   74   81 1   
    81   74   82 1   
    82   75   79 1   
    83   83   84 1   
    84   83   91 1   
    85   84   85 1   
    86   84   87 1   
    87   84   92 1   
    88   85   86 2   
    89   85  102 1   
    90   87   88 1   
    91   87   89 1   
    92   87   93 1   
    93   88   90 1   
    94   88   94 1   
    95   88   95 1   
    96   89   96 1   
    97   89   97 1   
    98   89   98 1   
    99   90   99 1   
   100   90  100 1   
   101   90  101 1   
   102  102  103 1   
   103  102  110 1   
   104  103  104 1   
   105  103  106 1   
   106  103  111 1   
   107  104  105 2   
   108  104  114 1   
   109  106  107 1   
   110  106  112 1   
   111  106  113 1   
   112  107  108 1   
   113  107  109 1   
   114  114  115 1   
   115  114  125 1   
   116  115  116 1   
   117  115  118 1   
   118  115  126 1   
   119  116  117 2   
   120  116  134 1   
   121  118  119 1   
   122  118  127 1   
   123  118  128 1   
   124  119  120 ar  
   125  119  121 ar  
   126  120  122 ar  
   127  120  129 1   
   128  121  123 ar  
   129  121  130 1   
   130  122  124 ar  
   131  122  131 1   
   132  123  124 ar  
   133  123  132 1   
   134  124  133 1   
   135  134  135 1   
   136  134  140 1   
   137  135  136 1   
   138  135  138 1   
   139  135  141 1   
   140  136  137 2   
   141  136  148 1   
   142  138  139 1   
   143  138  142 1   
   144  138  143 1   
   145  139  140 1   
   146  139  144 1   
   147  139  145 1   
   148  140  146 1   
   149  140  147 1   
   150  148  149 1   
   151  148  157 1   
   152  149  150 1   
   153  149  152 1   
   154  149  158 1   
   155  150  151 2   
   156  150  163 1   
   157  152  153 1   
   158  152  159 1   
   159  152  160 1   
   160  153  154 1   
   161  153  161 1   
   162  153  162 1   
   163  154  155 1   
   164  154  156 1   
   165  163  164 1   
   166  163  168 1   
   167  164  165 1   
   168  164  166 1   
   169  164  167 1   
   170  170  172 1   
   171  170  174 1   
   172  171  173 1   
   173  171  175 1   
   174  176  177 1   
   175  176  178 1   
   176  179  180 1   
   177  179  181 1   
   178  182  183 1   
   179  182  184 1   
@<TRIPOS>SUBSTRUCTURE
     1 MOL         1 TEMP              0 ****  ****    0 ROOT
