@<TRIPOS>MOLECULE
MOL
  181   177     1     0     0
SMALL
resp


@<TRIPOS>ATOM
      1 C1          2.0900   -0.7980    5.0730 c3        1 MOL     -0.425885
      2 C2          3.3260   -0.6840    4.1290 c         1 MOL      0.642225
      3 O1          3.2280   -0.2390    2.9920 o         1 MOL     -0.564912
      4 H1          1.3140   -1.3890    4.5860 hc        1 MOL      0.109478
      5 H2          2.3850   -1.2830    6.0040 hc        1 MOL      0.109478
      6 H3          1.7040    0.1990    5.2890 hc        1 MOL      0.109478
      7 N1          4.4790   -1.2360    4.5350 n         1 MOL     -0.477414
      8 C3          5.7520   -1.0430    3.8920 c3        1 MOL      0.176683
      9 C4          5.9110   -1.7730    2.6080 c         1 MOL      0.652130
     10 O2          6.8300   -1.4910    1.8840 o         1 MOL     -0.506320
     11 C5          6.9630   -1.2920    4.8290 c3        1 MOL     -0.302213
     12 C6          8.3260   -0.8540    4.2680 c         1 MOL      0.754096
     13 O3          9.2890   -1.6370    4.3180 o         1 MOL     -0.722687
     14 O4          8.4500    0.3080    3.8330 o         1 MOL     -0.722687
     15 H4          4.4090   -1.7270    5.4200 hn        1 MOL      0.251062
     16 H5          5.8600    0.0100    3.6110 h1        1 MOL      0.032048
     17 H6          7.0960   -2.3640    4.9780 hc        1 MOL      0.026620
     18 H7          6.7220   -0.7580    5.7510 hc        1 MOL      0.026620
     19 N2          5.0060   -2.6810    2.2050 n         1 MOL     -0.693364
     20 C7          4.8290   -3.5120    0.9930 c3        1 MOL      0.657041
     21 C8          4.7080   -2.7440   -0.3050 c         1 MOL      0.148223
     22 O5          3.7610   -2.8570   -1.0890 o         1 MOL     -0.541319
     23 C9          5.8970   -4.6890    0.8880 c3        1 MOL     -0.524328
     24 H8          4.2850   -2.9000    2.8860 hn        1 MOL      0.274437
     25 H9          3.8570   -3.9730    1.1400 h1        1 MOL     -0.038875
     26 H10         5.6470   -5.2070    1.8180 hc        1 MOL      0.132043
     27 H11         5.7300   -5.2830   -0.0090 hc        1 MOL      0.132043
     28 H12         6.9010   -4.2790    0.9320 hc        1 MOL      0.132043
     29 N3          5.7170   -1.9660   -0.6870 n         1 MOL     -0.000103
     30 C10         5.9560   -1.1870   -1.8680 c3        1 MOL      0.187429
     31 C11         6.2230    0.4030   -1.5760 c         1 MOL      0.433107
     32 O6          6.9760    1.0870   -2.2900 o         1 MOL     -0.544303
     33 C12         7.0190   -1.7330   -2.8680 c3        1 MOL     -0.232680
     34 C13         6.8630   -3.1000   -3.3860 c         1 MOL      0.686874
     35 O7          5.6770   -3.4750   -3.6600 o         1 MOL     -0.683333
     36 O8          7.8320   -3.8200   -3.6700 o         1 MOL     -0.683333
     37 H13         6.4680   -1.9640   -0.0050 hn        1 MOL      0.105813
     38 H14         4.9550   -1.1760   -2.2860 h1        1 MOL     -0.036011
     39 H15         7.9620   -1.5440   -2.3570 hc        1 MOL      0.035008
     40 H16         7.0400   -1.0250   -3.6920 hc        1 MOL      0.035008
     41 N4          5.6920    0.9400   -0.4660 n         1 MOL     -0.156557
     42 C14         5.9770    2.3210    0.1270 c3        1 MOL     -0.356613
     43 C15         5.0960    3.3220   -0.6410 c         1 MOL      0.773263
     44 O9          5.4920    4.4340   -0.7770 o         1 MOL     -0.576690
     45 H17         5.1870    0.2900    0.1070 hn        1 MOL      0.164437
     46 H18         7.0270    2.5780   -0.0410 h1        1 MOL      0.164517
     47 H19         5.6890    2.2680    1.1730 h1        1 MOL      0.164517
     48 N5          3.8940    2.8320   -1.0580 n         1 MOL     -0.534931
     49 C16         2.7760    3.5140   -1.8460 c3        1 MOL     -0.223476
     50 C17         2.1860    4.7560   -1.1940 c         1 MOL      0.750853
     51 O10         1.7690    4.6870   -0.0850 o         1 MOL     -0.551118
     52 C18         1.6580    2.4430   -2.1970 c3        1 MOL     -0.118392
     53 C19         2.2540    1.2860   -2.9440 c         1 MOL      0.688759
     54 N6          2.8260    1.5030   -4.0870 n         1 MOL     -0.607345
     55 O11         2.4210    0.1340   -2.5540 o         1 MOL     -0.697088
     56 H20         3.7320    1.8860   -0.7680 hn        1 MOL      0.334282
     57 H21         3.2450    3.8030   -2.7910 h1        1 MOL      0.092063
     58 H22         0.9200    2.8730   -2.8690 hc        1 MOL      0.088869
     59 H23         1.1460    1.9950   -1.3470 hc        1 MOL      0.088869
     60 H24         2.6720    2.3430   -4.6220 hn        1 MOL      0.292323
     61 H25         3.1200    0.6580   -4.5450 hn        1 MOL      0.292323
     62 N7          1.9730    5.8280   -1.8840 n         1 MOL     -0.503490
     63 C20         1.2950    7.0340   -1.4310 c3        1 MOL     -0.082607
     64 C21        -0.1970    7.0420   -1.5950 c         1 MOL      0.624936
     65 O12        -0.8540    6.1960   -2.2120 o         1 MOL     -0.521562
     66 H26         2.1580    5.6920   -2.8710 hn        1 MOL      0.287899
     67 H27         1.7010    7.8830   -1.9700 h1        1 MOL      0.098287
     68 H28         1.5110    7.1360   -0.3700 h1        1 MOL      0.098287
     69 N8         -0.8710    7.8930   -0.8150 n         1 MOL     -0.557717
     70 C22        -2.3960    7.9690   -0.7550 c3        1 MOL     -0.158669
     71 C23        -3.1210    6.8470   -0.0460 c         1 MOL      0.405071
     72 O13        -4.2410    7.0650    0.4610 o         1 MOL     -0.542157
     73 C24        -2.7980    9.2840    0.0340 c3        1 MOL      0.527356
     74 C25        -2.2440    9.4420    1.4950 c3        1 MOL     -0.296172
     75 O14        -2.3210   10.3630   -0.7140 oh        1 MOL     -0.656668
     76 H29        -0.3450    8.5130   -0.2230 hn        1 MOL      0.264976
     77 H30        -2.8500    8.0630   -1.7360 h1        1 MOL      0.150606
     78 H31        -3.8820    9.3650    0.1130 h1        1 MOL      0.016537
     79 H32        -1.3680   10.3130   -0.5850 ho        1 MOL      0.373834
     80 H33        -2.9270    9.0270    2.2310 hc        1 MOL      0.067746
     81 H34        -1.2550    8.9980    1.4930 hc        1 MOL      0.067746
     82 H35        -2.1260   10.5020    1.7150 hc        1 MOL      0.067746
     83 N9         -2.4250    5.6980    0.0900 n         1 MOL     -0.146608
     84 C26        -2.9770    4.5050    0.7620 c3        1 MOL     -0.020190
     85 C27        -2.5150    3.1870    0.0460 c         1 MOL      0.391663
     86 O15        -1.7590    3.3180   -0.8950 o         1 MOL     -0.456663
     87 C28        -2.4250    4.4650    2.1980 c3        1 MOL      0.113853
     88 C29        -0.9060    4.5140    2.3190 c3        1 MOL     -0.056009
     89 C30        -3.0140    5.6990    2.9590 c3        1 MOL     -0.275481
     90 C31        -0.3980    4.1040    3.7340 c3        1 MOL     -0.228920
     91 H36        -1.5030    5.6830   -0.3290 hn        1 MOL      0.203795
     92 H37        -4.0660    4.4590    0.7990 h1        1 MOL      0.072634
     93 H38        -2.7590    3.5580    2.6910 hc        1 MOL     -0.006017
     94 H39        -0.6570    5.5530    2.1060 hc        1 MOL      0.070735
     95 H40        -0.5000    3.8850    1.5230 hc        1 MOL      0.070735
     96 H41        -2.5220    6.6370    2.6930 hc        1 MOL      0.062993
     97 H42        -4.0410    5.8300    2.6330 hc        1 MOL      0.062993
     98 H43        -2.9880    5.5580    4.0500 hc        1 MOL      0.062993
     99 H44        -0.8650    4.7630    4.4650 hc        1 MOL      0.065009
    100 H45        -0.5960    3.0460    3.8900 hc        1 MOL      0.065009
    101 H46         0.6640    4.3080    3.9180 hc        1 MOL      0.065009
    102 N10        -2.9360    1.9730    0.4690 n         1 MOL     -0.476610
    103 C32        -2.5660    0.7170   -0.1110 c3        1 MOL      0.471105
    104 C33        -3.6150   -0.3400   -0.0780 c         1 MOL      0.416291
    105 O16        -3.4270   -1.5360    0.0500 o         1 MOL     -0.424097
    106 C34        -1.2440    0.1990    0.4630 c3        1 MOL     -0.684574
    107 C35        -0.4770   -0.7360   -0.5540 c         1 MOL      0.802595
    108 O17         0.7150   -1.0120   -0.2920 o         1 MOL     -0.716689
    109 O18        -0.9570   -0.9860   -1.6530 o         1 MOL     -0.716689
    110 H47        -3.5570    1.9750    1.2700 hn        1 MOL      0.256147
    111 H48        -2.5440    0.9200   -1.1780 h1        1 MOL      0.017865
    112 H49        -1.4080   -0.4640    1.3160 hc        1 MOL      0.214854
    113 H50        -0.5870    1.0340    0.6950 hc        1 MOL      0.214854
    114 N11        -4.9190    0.0020   -0.0700 n         1 MOL     -0.487338
    115 C36        -6.0960   -0.8620   -0.3780 c3        1 MOL      0.383920
    116 C37        -6.1650   -2.1370    0.5230 c         1 MOL      0.349624
    117 O19        -6.0600   -1.9910    1.7300 o         1 MOL     -0.474222
    118 C38        -7.3480   -0.0870   -0.3610 c3        1 MOL     -0.245256
    119 C39        -8.6340   -0.7200   -0.7790 ca        1 MOL      0.063944
    120 C40        -9.1550   -0.7120   -2.0700 ca        1 MOL     -0.122592
    121 C41        -9.2370   -1.4010    0.3150 ca        1 MOL     -0.122592
    122 C42       -10.2630   -1.5330   -2.2860 ca        1 MOL     -0.160055
    123 C43       -10.2540   -2.2530    0.0390 ca        1 MOL     -0.160055
    124 C44       -10.7590   -2.3870   -1.2410 ca        1 MOL     -0.064830
    125 H51        -5.0390    0.9960   -0.2550 hn        1 MOL      0.205063
    126 H52        -6.1810   -1.2360   -1.3980 h1        1 MOL     -0.042124
    127 H53        -7.2200    0.7100   -1.0950 hc        1 MOL      0.073792
    128 H54        -7.4530    0.2870    0.6540 hc        1 MOL      0.073792
    129 H55        -8.6540   -0.2320   -2.9040 ha        1 MOL      0.125152
    130 H56        -8.7760   -1.4000    1.3010 ha        1 MOL      0.125152
    131 H57       -10.7780   -1.6820   -3.2240 ha        1 MOL      0.113115
    132 H58       -10.7290   -2.8620    0.7850 ha        1 MOL      0.113115
    133 H59       -11.4900   -3.1380   -1.5000 ha        1 MOL      0.091708
    134 N12        -6.3060   -3.3710   -0.0240 n         1 MOL     -0.027685
    135 C45        -6.3560   -4.6170    0.8270 c3        1 MOL     -0.129108
    136 C46        -5.0920   -4.9400    1.5890 c         1 MOL      0.410106
    137 O20        -5.0930   -5.8980    2.4170 o         1 MOL     -0.550425
    138 C47        -6.7640   -5.6930   -0.1940 c3        1 MOL      0.074879
    139 C48        -5.9580   -5.3230   -1.4070 c3        1 MOL     -0.022579
    140 C49        -6.2790   -3.8040   -1.4210 c3        1 MOL     -0.105729
    141 H60        -7.1800   -4.5290    1.5290 h1        1 MOL      0.099498
    142 H61        -6.6920   -6.7200    0.1810 hc        1 MOL      0.007461
    143 H62        -7.8210   -5.5390   -0.3960 hc        1 MOL      0.007461
    144 H63        -4.9290   -5.5370   -1.1250 hc        1 MOL      0.031533
    145 H64        -6.3370   -5.8610   -2.2710 hc        1 MOL      0.031533
    146 H65        -5.5210   -3.2450   -1.9500 h1        1 MOL      0.055796
    147 H66        -7.2560   -3.6560   -1.8830 h1        1 MOL      0.055796
    148 N13        -3.9600   -4.2110    1.4560 n         1 MOL     -0.049045
    149 C50        -2.7480   -4.2370    2.3010 c3        1 MOL     -0.118654
    150 C51        -2.6430   -3.0960    3.2330 c         1 MOL      0.423299
    151 O21        -1.8040   -3.0610    4.1510 o         1 MOL     -0.565465
    152 C52        -1.4450   -4.2770    1.4460 c3        1 MOL      0.141257
    153 C53        -1.2420   -5.3790    0.4180 c3        1 MOL     -0.355640
    154 C54        -0.2960   -5.0110   -0.7680 c         1 MOL      0.972800
    155 O22        -0.2370   -5.7310   -1.7610 o         1 MOL     -0.817206
    156 O23         0.2510   -3.9090   -0.7690 o         1 MOL     -0.817206
    157 H67        -3.9500   -3.4650    0.7820 hn        1 MOL      0.147957
    158 H68        -2.7520   -5.1340    2.9110 h1        1 MOL      0.100340
    159 H69        -0.5830   -4.3120    2.1160 hc        1 MOL      0.020759
    160 H70        -1.3960   -3.2650    1.0360 hc        1 MOL      0.020759
    161 H71        -2.1870   -5.7730    0.0110 hc        1 MOL      0.064791
    162 H72        -0.7490   -6.1930    0.9350 hc        1 MOL      0.064791
    163 N14        -3.5040   -2.0920    3.0380 n         1 MOL      0.054699
    164 C55        -3.7940   -1.0850    4.0480 c3        1 MOL     -0.285025
    165 H73        -4.5490   -1.4660    4.7340 h1        1 MOL      0.103031
    166 H74        -2.8840   -0.8520    4.6020 h1        1 MOL      0.103031
    167 H75        -4.1660   -0.1810    3.5640 h1        1 MOL      0.103031
    168 H76        -4.0310   -2.1700    2.1860 hn        1 MOL     -0.091180
    169 Ca1         1.4720   -2.4180   -2.2840 Ca        1 MOL      1.745909
    170 O24         3.3140   -2.4460   -4.0300 oh        1 MOL     -0.822441
    171 H77         3.4740   -1.6880   -4.5920 ho        1 MOL      0.387278
    172 H78         4.1790   -2.8010   -3.8450 ho        1 MOL      0.387278
    173 O25         2.3370   -5.5350   -2.7560 oh        1 MOL     -0.822441
    174 H79         2.3020   -5.9340   -3.6230 ho        1 MOL      0.387278
    175 H80         1.4390   -5.6120   -2.4220 ho        1 MOL      0.387278
    176 O26         0.3400   -1.1560   -4.3640 oh        1 MOL     -0.822441
    177 H81        -0.0700   -1.6780   -5.0550 ho        1 MOL      0.387278
    178 H82         0.3140   -0.2560   -4.7010 ho        1 MOL      0.387278
    179 O27         0.0460   -4.0730   -3.8500 oh        1 MOL     -0.822441
    180 H83        -0.1370   -4.7510   -3.2070 ho        1 MOL      0.387278
    181 H84         0.0440   -4.5230   -4.6870 ho        1 MOL      0.387278
@<TRIPOS>BOND
     1    1    2 1   
     2    1    4 1   
     3    1    5 1   
     4    1    6 1   
     5    2    3 2   
     6    2    7 1   
     7    7    8 1   
     8    7   15 1   
     9    8    9 1   
    10    8   11 1   
    11    8   16 1   
    12    9   10 2   
    13    9   19 1   
    14   11   12 1   
    15   11   17 1   
    16   11   18 1   
    17   12   13 1   
    18   12   14 1   
    19   19   20 1   
    20   19   24 1   
    21   20   21 1   
    22   20   23 1   
    23   20   25 1   
    24   21   22 2   
    25   21   29 1   
    26   23   26 1   
    27   23   27 1   
    28   23   28 1   
    29   29   30 1   
    30   29   37 1   
    31   30   31 1   
    32   30   33 1   
    33   30   38 1   
    34   31   32 2   
    35   31   41 1   
    36   33   34 1   
    37   33   39 1   
    38   33   40 1   
    39   34   35 1   
    40   34   36 1   
    41   41   42 1   
    42   41   45 1   
    43   42   43 1   
    44   42   46 1   
    45   42   47 1   
    46   43   44 2   
    47   43   48 1   
    48   48   49 1   
    49   48   56 1   
    50   49   50 1   
    51   49   52 1   
    52   49   57 1   
    53   50   51 2   
    54   50   62 1   
    55   52   53 1   
    56   52   58 1   
    57   52   59 1   
    58   53   54 1   
    59   53   55 2   
    60   54   60 1   
    61   54   61 1   
    62   62   63 1   
    63   62   66 1   
    64   63   64 1   
    65   63   67 1   
    66   63   68 1   
    67   64   65 2   
    68   64   69 1   
    69   69   70 1   
    70   69   76 1   
    71   70   71 1   
    72   70   73 1   
    73   70   77 1   
    74   71   72 2   
    75   71   83 1   
    76   73   74 1   
    77   73   75 1   
    78   73   78 1   
    79   74   80 1   
    80   74   81 1   
    81   74   82 1   
    82   75   79 1   
    83   83   84 1   
    84   83   91 1   
    85   84   85 1   
    86   84   87 1   
    87   84   92 1   
    88   85   86 2   
    89   85  102 1   
    90   87   88 1   
    91   87   89 1   
    92   87   93 1   
    93   88   90 1   
    94   88   94 1   
    95   88   95 1   
    96   89   96 1   
    97   89   97 1   
    98   89   98 1   
    99   90   99 1   
   100   90  100 1   
   101   90  101 1   
   102  102  103 1   
   103  102  110 1   
   104  103  104 1   
   105  103  106 1   
   106  103  111 1   
   107  104  105 2   
   108  104  114 1   
   109  106  107 1   
   110  106  112 1   
   111  106  113 1   
   112  107  108 1   
   113  107  109 1   
   114  114  115 1   
   115  114  125 1   
   116  115  116 1   
   117  115  118 1   
   118  115  126 1   
   119  116  117 2   
   120  116  134 1   
   121  118  119 1   
   122  118  127 1   
   123  118  128 1   
   124  119  120 ar  
   125  119  121 ar  
   126  120  122 ar  
   127  120  129 1   
   128  121  123 ar  
   129  121  130 1   
   130  122  124 ar  
   131  122  131 1   
   132  123  124 ar  
   133  123  132 1   
   134  124  133 1   
   135  134  135 1   
   136  134  140 1   
   137  135  136 1   
   138  135  138 1   
   139  135  141 1   
   140  136  137 2   
   141  136  148 1   
   142  138  139 1   
   143  138  142 1   
   144  138  143 1   
   145  139  140 1   
   146  139  144 1   
   147  139  145 1   
   148  140  146 1   
   149  140  147 1   
   150  148  149 1   
   151  148  157 1   
   152  149  150 1   
   153  149  152 1   
   154  149  158 1   
   155  150  151 2   
   156  150  163 1   
   157  152  153 1   
   158  152  159 1   
   159  152  160 1   
   160  153  154 1   
   161  153  161 1   
   162  153  162 1   
   163  154  155 1   
   164  154  156 1   
   165  163  164 1   
   166  163  168 1   
   167  164  165 1   
   168  164  166 1   
   169  164  167 1   
   170  170  171 1   
   171  170  172 1   
   172  173  174 1   
   173  173  175 1   
   174  176  177 1   
   175  176  178 1   
   176  179  180 1   
   177  179  181 1   
@<TRIPOS>SUBSTRUCTURE
     1 MOL         1 TEMP              0 ****  ****    0 ROOT
