@<TRIPOS>MOLECULE
MOL
  195   189     1     0     0
SMALL
resp


@<TRIPOS>ATOM
      1 C1          6.8440    1.6890    5.2150 c3        1 MOL     -0.138646
      2 C2          6.1250    1.4130    3.9090 c         1 MOL      0.753110
      3 O1          5.8500    2.2580    3.0180 o         1 MOL     -0.616017
      4 H1          6.5350    0.9560    5.9610 hc        1 MOL      0.034760
      5 H2          7.9210    1.6150    5.0600 hc        1 MOL      0.034760
      6 H3          6.5950    2.6910    5.5640 hc        1 MOL      0.034760
      7 N1          5.8580    0.1400    3.5570 n         1 MOL     -0.612805
      8 C3          5.4980   -0.3370    2.2180 c3        1 MOL      0.557007
      9 C4          4.0530   -0.0310    1.7970 c         1 MOL     -0.163178
     10 O2          3.5570   -0.6430    0.7910 o         1 MOL     -0.238276
     11 C5          5.8200   -1.8450    2.1850 c3        1 MOL     -0.189745
     12 C6          7.2410   -2.1510    2.5390 c         1 MOL      0.705852
     13 O3          7.5950   -1.9580    3.6950 o         1 MOL     -0.696130
     14 O4          8.0230   -2.7620    1.7780 o         1 MOL     -0.696130
     15 H4          6.1170   -0.5780    4.2220 hn        1 MOL      0.265133
     16 H5          6.1090    0.0750    1.4120 h1        1 MOL      0.002338
     17 H6          5.6500   -2.2500    1.1910 hc        1 MOL     -0.021032
     18 H7          5.1150   -2.3470    2.8540 hc        1 MOL     -0.021032
     19 N2          3.3200    0.7850    2.5540 n         1 MOL     -0.163198
     20 C7          1.8330    0.6220    2.6530 c3        1 MOL      0.067790
     21 C8          1.1920    1.9690    2.3720 c         1 MOL      0.409760
     22 O5          1.7120    2.9610    2.9130 o         1 MOL     -0.482461
     23 C9          1.4780   -0.0200    4.0410 c3        1 MOL     -0.168079
     24 C10         1.8090   -1.5810    4.1690 c3        1 MOL      0.065043
     25 C11         1.1180   -2.1070    5.4390 c3        1 MOL     -0.274072
     26 C12         1.1900   -3.6640    5.3910 c3        1 MOL      0.087613
     27 N3          0.6710   -4.3020    6.5640 n4        1 MOL     -0.325903
     28 H8          3.7670    1.2960    3.2970 hn        1 MOL      0.230310
     29 H9          1.4880   -0.0820    1.8900 h1        1 MOL      0.134199
     30 H10         0.4320    0.1940    4.2420 hc        1 MOL      0.055180
     31 H11         2.1220    0.3730    4.8360 hc        1 MOL      0.055180
     32 H12         2.8750   -1.7710    4.2350 hc        1 MOL      0.040039
     33 H13         1.4530   -2.0600    3.2550 hc        1 MOL      0.040039
     34 H14         0.0810   -1.8100    5.2690 hc        1 MOL      0.107232
     35 H15         1.6090   -1.6580    6.2980 hc        1 MOL      0.107232
     36 H16         2.2490   -3.8670    5.2150 hx        1 MOL      0.097544
     37 H17         0.6290   -4.0370    4.5460 hx        1 MOL      0.097544
     38 H18        -0.2910   -4.1130    6.7820 hn        1 MOL      0.304789
     39 H19         0.9010   -5.2810    6.5970 hn        1 MOL      0.304789
     40 H20         1.1550   -3.8780    7.3450 hn        1 MOL      0.304789
     41 N4          0.1340    2.0570    1.5490 n         1 MOL     -0.267200
     42 C13        -0.7630    1.1070    0.8180 c3        1 MOL      0.024996
     43 C14        -1.3430    0.0070    1.7400 c         1 MOL      0.634596
     44 O6         -0.7600   -1.0610    1.8470 o         1 MOL     -0.576276
     45 C15        -0.2360    0.7630   -0.5920 c3        1 MOL     -0.976800
     46 C16        -0.0570    1.9400   -1.5590 c         1 MOL      0.890948
     47 O7         -0.4920    3.1070   -1.3790 o         1 MOL     -0.730469
     48 O8          0.6040    1.6620   -2.5650 o         1 MOL     -0.730469
     49 H21        -0.0620    3.0410    1.4200 hn        1 MOL      0.175109
     50 H22        -1.6020    1.7390    0.5420 h1        1 MOL      0.018387
     51 H23        -1.0290    0.1580   -1.0360 hc        1 MOL      0.347870
     52 H24         0.7040    0.2340   -0.4550 hc        1 MOL      0.347870
     53 N5         -2.4960    0.1610    2.4260 n         1 MOL     -0.492104
     54 C17        -3.5680    1.1620    2.3080 c3        1 MOL      0.065026
     55 C18        -4.6880    1.0280    3.3480 c         1 MOL      0.545415
     56 O9         -4.6400    0.1910    4.2160 o         1 MOL     -0.527933
     57 H25        -2.6680   -0.6740    2.9730 hn        1 MOL      0.291283
     58 H26        -3.8840    1.2220    1.2760 h1        1 MOL      0.054047
     59 H27        -2.9780    2.0500    2.5320 h1        1 MOL      0.054047
     60 N6         -5.7410    1.9040    3.3220 n         1 MOL     -0.579586
     61 C19        -5.9650    3.0160    2.4150 c3        1 MOL      0.369224
     62 C20        -6.8030    2.5230    1.2290 c         1 MOL      0.435704
     63 O10        -7.5260    1.5550    1.4080 o         1 MOL     -0.434340
     64 C21        -6.7170    4.1320    3.1970 c3        1 MOL     -0.174195
     65 C22        -7.9020    3.7160    4.1540 c         1 MOL      0.668394
     66 O11        -7.8260    2.6280    4.7690 o         1 MOL     -0.645250
     67 O12        -8.9600    4.3680    4.2220 o         1 MOL     -0.645250
     68 H28        -6.3740    1.8270    4.1030 hn        1 MOL      0.323830
     69 H29        -5.0200    3.4250    2.0940 h1        1 MOL     -0.121731
     70 H30        -7.0810    4.8740    2.4790 hc        1 MOL     -0.001296
     71 H31        -5.9860    4.6280    3.8290 hc        1 MOL     -0.001296
     72 N7         -6.7750    3.1430    0.0610 n         1 MOL     -0.332056
     73 C23        -7.5370    2.6060   -1.1440 c3        1 MOL     -0.140582
     74 C24        -7.0910    1.2760   -1.6940 c         1 MOL      0.493174
     75 O13        -7.9330    0.5390   -2.2600 o         1 MOL     -0.535228
     76 H32        -6.4290    4.0890   -0.0250 hn        1 MOL      0.211155
     77 H33        -7.3170    3.2890   -1.9680 h1        1 MOL      0.111638
     78 H34        -8.5980    2.6820   -0.9120 h1        1 MOL      0.111638
     79 N8         -5.7910    0.9810   -1.6480 n         1 MOL     -0.374126
     80 C25        -5.1180   -0.2640   -2.0390 c3        1 MOL      0.172450
     81 C26        -5.2410   -1.4030   -1.0330 c         1 MOL      0.505052
     82 O14        -5.0830   -1.1730    0.2050 o         1 MOL     -0.471662
     83 C27        -3.6340    0.0540   -2.4300 c3        1 MOL      0.349745
     84 C28        -3.4800    0.7660   -3.7840 c3        1 MOL     -0.449623
     85 O15        -2.8780   -1.0780   -2.4980 oh        1 MOL     -0.585608
     86 H35        -5.1890    1.7320   -1.3350 hn        1 MOL      0.148657
     87 H36        -5.5940   -0.5720   -2.9700 h1        1 MOL      0.039768
     88 H37        -3.2340    0.6730   -1.6230 h1        1 MOL      0.014694
     89 H38        -2.0860   -0.7900   -2.9550 ho        1 MOL      0.422591
     90 H39        -3.5330   -0.0360   -4.5110 hc        1 MOL      0.111727
     91 H40        -4.1690    1.6080   -3.8940 hc        1 MOL      0.111727
     92 H41        -2.5350    1.3080   -3.7160 hc        1 MOL      0.111727
     93 N9         -5.3380   -2.6580   -1.4450 n         1 MOL     -0.541912
     94 C29        -5.4100   -3.8450   -0.5990 c3        1 MOL     -0.085314
     95 C30        -4.1250   -4.7250   -0.6930 c         1 MOL      0.450754
     96 O16        -4.1230   -5.9110   -0.4510 o         1 MOL     -0.525562
     97 C31        -6.7570   -4.6200   -0.8140 c3        1 MOL      0.310845
     98 C32        -6.8820   -5.2190   -2.2050 c3        1 MOL     -0.023146
     99 C33        -7.9520   -3.7380   -0.5010 c3        1 MOL     -0.292161
    100 C34        -7.5920   -6.5900   -2.1990 c3        1 MOL     -0.203310
    101 H42        -5.3390   -2.7520   -2.4520 hn        1 MOL      0.278524
    102 H43        -5.4350   -3.5450    0.4490 h1        1 MOL      0.126660
    103 H44        -6.7300   -5.4300   -0.0820 hc        1 MOL     -0.045179
    104 H45        -5.8830   -5.3840   -2.6190 hc        1 MOL      0.013726
    105 H46        -7.4280   -4.4740   -2.7900 hc        1 MOL      0.013726
    106 H47        -8.8680   -4.3100   -0.3790 hc        1 MOL      0.082397
    107 H48        -7.7660   -3.2560    0.4560 hc        1 MOL      0.082397
    108 H49        -8.1760   -3.0060   -1.2690 hc        1 MOL      0.082397
    109 H50        -7.1460   -7.1980   -1.4030 hc        1 MOL      0.051427
    110 H51        -8.6810   -6.5270   -2.1310 hc        1 MOL      0.051427
    111 H52        -7.4490   -7.1410   -3.1260 hc        1 MOL      0.051427
    112 N10        -3.0150   -4.1530   -1.2350 n         1 MOL     -0.066080
    113 C35        -1.6390   -4.7790   -1.2120 c3        1 MOL     -0.345022
    114 C36        -0.6450   -3.7590   -0.9780 c         1 MOL      0.586938
    115 O17        -0.8300   -2.5350   -1.2700 o         1 MOL     -0.477876
    116 C37        -1.3490   -5.3380   -2.5720 c3        1 MOL      0.477558
    117 C38        -1.3970   -4.4310   -3.8040 c3        1 MOL     -0.355080
    118 O18        -2.3100   -6.3330   -2.7850 oh        1 MOL     -0.624542
    119 H53        -3.0300   -3.1740   -1.4860 hn        1 MOL      0.122625
    120 H54        -1.6100   -5.5510   -0.4340 h1        1 MOL      0.123895
    121 H55        -0.3610   -5.7870   -2.5480 h1        1 MOL     -0.034879
    122 H56        -2.7770   -6.4610   -1.9600 ho        1 MOL      0.368788
    123 H57        -0.6460   -3.6500   -3.7630 hc        1 MOL      0.097068
    124 H58        -1.2740   -5.1060   -4.6490 hc        1 MOL      0.097068
    125 H59        -2.3990   -4.0090   -3.7940 hc        1 MOL      0.097068
    126 N11         0.5850   -4.1920   -0.5310 n         1 MOL     -0.474301
    127 C39         1.7750   -3.3210   -0.3830 c3        1 MOL      0.030411
    128 C40         2.1740   -2.7440   -1.7370 c         1 MOL      0.432160
    129 O19         1.8650   -3.1770   -2.8610 o         1 MOL     -0.532117
    130 C41         2.8940   -3.9090    0.4320 c3        1 MOL      0.578654
    131 C42         3.4930   -5.1490   -0.0800 c3        1 MOL     -0.376092
    132 O20         2.2930   -4.2000    1.6810 oh        1 MOL     -0.740313
    133 H60         0.7780   -5.1820   -0.4670 hn        1 MOL      0.284955
    134 H61         1.5300   -2.4580    0.2390 h1        1 MOL      0.161243
    135 H62         3.6440   -3.1200    0.5160 h1        1 MOL      0.020041
    136 H63         2.9330   -4.6770    2.2080 ho        1 MOL      0.382954
    137 H64         4.3990   -5.2810    0.5140 hc        1 MOL      0.073158
    138 H65         2.7760   -5.9200    0.2190 hc        1 MOL      0.073158
    139 H66         3.6690   -5.1400   -1.1560 hc        1 MOL      0.073158
    140 N12         2.9440   -1.6230   -1.6780 n         1 MOL     -0.086497
    141 C43         3.5400   -1.0000   -2.8540 c3        1 MOL     -0.069684
    142 C44         3.6480    0.5600   -2.7740 c         1 MOL      0.657742
    143 O21         3.7980    1.1370   -3.8560 o         1 MOL     -0.636011
    144 C45         4.8970   -1.7330   -3.2030 c3        1 MOL     -0.238554
    145 C46         5.9410   -1.7960   -2.1010 c3        1 MOL     -0.044918
    146 C47         7.2640   -2.4180   -2.5160 c3        1 MOL     -0.215478
    147 C48         7.1040   -3.8700   -2.5530 c3        1 MOL      0.068515
    148 N13         8.3930   -4.5190   -2.4620 n4        1 MOL     -0.353139
    149 H67         3.2610   -1.2090   -0.8130 hn        1 MOL     -0.317712
    150 H68         2.8450   -1.1860   -3.6770 h1        1 MOL      0.118897
    151 H69         5.3030   -1.1750   -4.0500 hc        1 MOL      0.084553
    152 H70         4.7700   -2.7660   -3.5320 hc        1 MOL      0.084553
    153 H71         5.5470   -2.0860   -1.1230 hc        1 MOL      0.081830
    154 H72         6.1520   -0.7500   -1.8640 hc        1 MOL      0.081830
    155 H73         8.1060   -2.0930   -1.9090 hc        1 MOL      0.088949
    156 H74         7.4150   -2.1010   -3.5480 hc        1 MOL      0.088949
    157 H75         6.6030   -4.1940   -3.4610 hx        1 MOL      0.083134
    158 H76         6.5160   -4.1600   -1.6740 hx        1 MOL      0.083134
    159 H77         8.9980   -4.3450   -3.2480 hn        1 MOL      0.322992
    160 H78         8.8860   -4.0510   -1.7030 hn        1 MOL      0.322992
    161 H79         8.2870   -5.5230   -2.4500 hn        1 MOL      0.322992
    162 N14         3.7200    1.1110   -1.5470 n         1 MOL     -0.118833
    163 C49         4.0940    2.4500   -1.3680 c3        1 MOL      0.027311
    164 C50         5.6340    2.5780   -1.4070 c         1 MOL      0.135631
    165 O22         6.2790    1.8780   -0.6270 o         1 MOL     -0.447858
    166 C51         3.4560    2.9960   -0.0730 c3        1 MOL      1.897649
    167 C52         3.7940    4.4660    0.3100 c3        1 MOL     -0.514195
    168 C53         3.3140    5.4230   -0.8330 c         1 MOL      0.781509
    169 O23         4.1990    5.7930   -1.5790 o         1 MOL     -0.784243
    170 O24         2.0810    5.7660   -0.9290 o         1 MOL     -0.784243
    171 H80         3.6240    0.5150   -0.7340 hn        1 MOL      0.279640
    172 H81         3.8090    3.0940   -2.2040 h1        1 MOL     -0.111986
    173 H82         3.8890    2.4250    0.7450 hc        1 MOL     -0.692823
    174 H83         2.3870    2.9310   -0.2760 hc        1 MOL     -0.692823
    175 H84         4.8320    4.6410    0.5920 hc        1 MOL      0.086663
    176 H85         3.1360    4.7910    1.1160 hc        1 MOL      0.086663
    177 N15         6.2350    3.4670   -2.1860 n         1 MOL     -0.196386
    178 C54         7.6980    3.7110   -2.2080 c3        1 MOL     -0.212134
    179 H86         7.9460    4.3550   -3.0510 h1        1 MOL      0.105024
    180 H87         8.0000    4.1960   -1.2790 h1        1 MOL      0.105024
    181 H88         8.2240    2.7610   -2.3100 h1        1 MOL      0.105024
    182 H89         5.6210    4.0040   -2.7720 hn        1 MOL      0.318774
    183 Ca1        -0.3080    5.6020   -1.6690 Ca        1 MOL      1.720037
    184 O25         0.8930    7.1990   -3.4150 oh        1 MOL     -0.875716
    185 H90         0.5400    8.0510   -3.6910 ho        1 MOL      0.435894
    186 H91         1.8390    7.2850   -3.5190 ho        1 MOL      0.435894
    187 O26         1.3110    3.9070   -3.6730 oh        1 MOL     -0.875716
    188 H92         1.1820    2.9930   -3.4380 ho        1 MOL      0.435894
    189 H93         2.2520    3.9680   -3.8650 ho        1 MOL      0.435894
    190 O27        -1.9170    7.6280   -2.5210 oh        1 MOL     -0.875716
    191 H94        -2.7260    7.3500   -2.0870 ho        1 MOL      0.435894
    192 H95        -2.2060    8.0340   -3.3360 ho        1 MOL      0.435894
    193 O28        -1.8310    4.7210   -3.8150 oh        1 MOL     -0.875716
    194 H96        -2.7190    4.9910   -4.0560 ho        1 MOL      0.435894
    195 H97        -1.4480    4.4230   -4.6320 ho        1 MOL      0.435894
@<TRIPOS>BOND
     1    1    2 1   
     2    1    4 1   
     3    1    5 1   
     4    1    6 1   
     5    2    3 2   
     6    2    7 1   
     7    7    8 1   
     8    7   15 1   
     9    8    9 1   
    10    8   11 1   
    11    8   16 1   
    12    9   10 2   
    13    9   19 1   
    14   11   12 1   
    15   11   17 1   
    16   11   18 1   
    17   12   13 1   
    18   12   14 1   
    19   19   20 1   
    20   19   28 1   
    21   20   21 1   
    22   20   23 1   
    23   20   29 1   
    24   21   22 2   
    25   21   41 1   
    26   23   24 1   
    27   23   30 1   
    28   23   31 1   
    29   24   25 1   
    30   24   32 1   
    31   24   33 1   
    32   25   26 1   
    33   25   34 1   
    34   25   35 1   
    35   26   27 1   
    36   26   36 1   
    37   26   37 1   
    38   27   38 1   
    39   27   39 1   
    40   27   40 1   
    41   41   42 1   
    42   41   49 1   
    43   42   43 1   
    44   42   45 1   
    45   42   50 1   
    46   43   44 2   
    47   43   53 1   
    48   45   46 1   
    49   45   51 1   
    50   45   52 1   
    51   46   47 1   
    52   46   48 1   
    53   53   54 1   
    54   53   57 1   
    55   54   55 1   
    56   54   58 1   
    57   54   59 1   
    58   55   56 2   
    59   55   60 1   
    60   60   61 1   
    61   60   68 1   
    62   61   62 1   
    63   61   64 1   
    64   61   69 1   
    65   62   63 2   
    66   62   72 1   
    67   64   65 1   
    68   64   70 1   
    69   64   71 1   
    70   65   66 1   
    71   65   67 1   
    72   72   73 1   
    73   72   76 1   
    74   73   74 1   
    75   73   77 1   
    76   73   78 1   
    77   74   75 2   
    78   74   79 1   
    79   79   80 1   
    80   79   86 1   
    81   80   81 1   
    82   80   83 1   
    83   80   87 1   
    84   81   82 2   
    85   81   93 1   
    86   83   84 1   
    87   83   85 1   
    88   83   88 1   
    89   84   90 1   
    90   84   91 1   
    91   84   92 1   
    92   85   89 1   
    93   93   94 1   
    94   93  101 1   
    95   94   95 1   
    96   94   97 1   
    97   94  102 1   
    98   95   96 2   
    99   95  112 1   
   100   97   98 1   
   101   97   99 1   
   102   97  103 1   
   103   98  100 1   
   104   98  104 1   
   105   98  105 1   
   106   99  106 1   
   107   99  107 1   
   108   99  108 1   
   109  100  109 1   
   110  100  110 1   
   111  100  111 1   
   112  112  113 1   
   113  112  119 1   
   114  113  114 1   
   115  113  116 1   
   116  113  120 1   
   117  114  115 2   
   118  114  126 1   
   119  116  117 1   
   120  116  118 1   
   121  116  121 1   
   122  117  123 1   
   123  117  124 1   
   124  117  125 1   
   125  118  122 1   
   126  126  127 1   
   127  126  133 1   
   128  127  128 1   
   129  127  130 1   
   130  127  134 1   
   131  128  129 2   
   132  128  140 1   
   133  130  131 1   
   134  130  132 1   
   135  130  135 1   
   136  131  137 1   
   137  131  138 1   
   138  131  139 1   
   139  132  136 1   
   140  140  141 1   
   141  140  149 1   
   142  141  142 1   
   143  141  144 1   
   144  141  150 1   
   145  142  143 2   
   146  142  162 1   
   147  144  145 1   
   148  144  151 1   
   149  144  152 1   
   150  145  146 1   
   151  145  153 1   
   152  145  154 1   
   153  146  147 1   
   154  146  155 1   
   155  146  156 1   
   156  147  148 1   
   157  147  157 1   
   158  147  158 1   
   159  148  159 1   
   160  148  160 1   
   161  148  161 1   
   162  162  163 1   
   163  162  171 1   
   164  163  164 1   
   165  163  166 1   
   166  163  172 1   
   167  164  165 2   
   168  164  177 1   
   169  166  167 1   
   170  166  173 1   
   171  166  174 1   
   172  167  168 1   
   173  167  175 1   
   174  167  176 1   
   175  168  169 1   
   176  168  170 1   
   177  177  178 1   
   178  177  182 1   
   179  178  179 1   
   180  178  180 1   
   181  178  181 1   
   182  184  185 1   
   183  184  186 1   
   184  187  188 1   
   185  187  189 1   
   186  190  191 1   
   187  190  192 1   
   188  193  194 1   
   189  193  195 1   
@<TRIPOS>SUBSTRUCTURE
     1 MOL         1 TEMP              0 ****  ****    0 ROOT
