@<TRIPOS>MOLECULE
MOL
  195   189     1     0     0
SMALL
resp


@<TRIPOS>ATOM
      1 C1          0.4990    4.1710    3.2020 c3        1 MOL     -0.421773
      2 C2         -0.3710    3.7890    2.1030 c         1 MOL      0.780982
      3 O1         -0.9890    2.7250    2.3390 o         1 MOL     -0.585847
      4 H1          1.5020    4.3620    2.8210 hc        1 MOL      0.077456
      5 H2          0.1130    5.0740    3.6740 hc        1 MOL      0.077456
      6 H3          0.5370    3.3650    3.9340 hc        1 MOL      0.077456
      7 N1         -0.4340    4.4920    0.9940 n         1 MOL     -0.455819
      8 C3         -1.3580    4.2860   -0.1630 c3        1 MOL     -0.098992
      9 C4         -2.7820    4.4900    0.2720 c         1 MOL      0.257226
     10 O2         -3.6000    3.6310    0.6370 o         1 MOL     -0.366809
     11 C5         -1.0150    2.9960   -0.9380 c3        1 MOL     -0.134803
     12 C6         -1.9490    2.9000   -2.1380 c         1 MOL      0.664680
     13 O3         -2.2960    3.9770   -2.6180 o         1 MOL     -0.607897
     14 O4         -2.2290    1.8250   -2.6860 o         1 MOL     -0.607897
     15 H4         -0.0190    5.4120    0.9730 hn        1 MOL      0.265371
     16 H5         -1.0620    5.1580   -0.7470 h1        1 MOL      0.115438
     17 H6         -1.0450    2.1630   -0.2370 hc        1 MOL      0.073646
     18 H7         -0.0470    3.1500   -1.4180 hc        1 MOL      0.073646
     19 N2         -3.1760    5.7440    0.1670 n         1 MOL     -0.373633
     20 C7         -4.4210    6.3170    0.7540 c3        1 MOL     -0.240264
     21 C8         -5.2810    6.8780   -0.3950 c         1 MOL      0.612332
     22 O5         -4.8720    7.7870   -1.0770 o         1 MOL     -0.603418
     23 C9         -4.1880    7.3160    1.9740 c3        1 MOL      0.387429
     24 C10        -3.7080    6.5490    3.2080 c3        1 MOL     -0.166557
     25 C11        -5.5680    7.9040    2.2060 c3        1 MOL     -0.396767
     26 C12        -3.0870    7.5170    4.2990 c3        1 MOL     -0.168260
     27 H8         -2.5390    6.4730   -0.1460 hn        1 MOL      0.276996
     28 H9         -4.9390    5.4360    1.1550 h1        1 MOL      0.085162
     29 H10        -3.5490    8.1080    1.5870 hc        1 MOL     -0.046005
     30 H11        -2.9240    5.8190    2.9970 hc        1 MOL      0.103708
     31 H12        -4.5690    6.0650    3.6630 hc        1 MOL      0.103708
     32 H13        -5.8680    8.4550    1.3190 hc        1 MOL      0.082604
     33 H14        -6.2260    7.0760    2.4860 hc        1 MOL      0.082604
     34 H15        -5.4160    8.6730    2.9600 hc        1 MOL      0.082604
     35 H16        -2.2660    7.9780    3.7670 hc        1 MOL      0.025773
     36 H17        -3.8190    8.2780    4.5830 hc        1 MOL      0.025773
     37 H18        -2.6690    6.9610    5.1380 hc        1 MOL      0.025773
     38 N3         -6.4250    6.2950   -0.7230 n         1 MOL     -0.218264
     39 C13        -7.1070    5.2310   -0.0740 c3        1 MOL     -0.059340
     40 C14        -6.4820    3.8090   -0.3930 c         1 MOL      0.511948
     41 O6         -6.5490    2.8630    0.4010 o         1 MOL     -0.585794
     42 C15        -8.5850    5.2580   -0.4320 c3        1 MOL     -0.105129
     43 C16        -8.9410    5.3240   -1.9240 c         1 MOL      0.611164
     44 O7         -9.7520    4.4900   -2.3720 o         1 MOL     -0.617838
     45 O8         -8.4050    6.2480   -2.5980 o         1 MOL     -0.617838
     46 H19        -6.9350    6.7190   -1.4880 hn        1 MOL      0.156557
     47 H20        -7.0530    5.4020    1.0040 h1        1 MOL      0.046874
     48 H21        -8.9550    6.1780    0.0310 hc        1 MOL      0.024723
     49 H22        -9.0720    4.4190    0.0700 hc        1 MOL      0.024723
     50 N4         -5.9550    3.6790   -1.5830 n         1 MOL     -0.234993
     51 C17        -5.2890    2.5030   -2.1140 c3        1 MOL      0.082701
     52 C18        -6.2420    1.2540   -2.1840 c         1 MOL      0.326706
     53 O9         -7.4380    1.4340   -2.2960 o         1 MOL     -0.454079
     54 H23        -6.1370    4.4380   -2.2160 hn        1 MOL      0.220622
     55 H24        -4.4980    2.2820   -1.3930 h1        1 MOL      0.064251
     56 H25        -4.8510    2.6960   -3.0860 h1        1 MOL      0.064251
     57 N5         -5.6840    0.0670   -2.3970 n         1 MOL     -0.266928
     58 C19        -6.4380   -1.1770   -2.5730 c3        1 MOL     -0.076507
     59 C20        -7.1020   -1.7760   -1.3880 c         1 MOL      0.408603
     60 O10        -8.0530   -2.5330   -1.6070 o         1 MOL     -0.573922
     61 C21        -5.4720   -2.2530   -3.2620 c3        1 MOL      0.006258
     62 C22        -4.0300   -2.2180   -2.7050 c         1 MOL      0.544866
     63 O11        -3.1910   -1.5290   -3.2730 o         1 MOL     -0.579223
     64 O12        -3.8740   -2.8500   -1.6320 o         1 MOL     -0.579223
     65 H26        -4.6730    0.0190   -2.3800 hn        1 MOL      0.248925
     66 H27        -7.2630   -1.0420   -3.2750 h1        1 MOL      0.097871
     67 H28        -5.4340   -1.9540   -4.3040 hc        1 MOL     -0.020218
     68 H29        -5.8710   -3.2610   -3.2000 hc        1 MOL     -0.020218
     69 N6         -6.5610   -1.5340   -0.2470 n         1 MOL     -0.077427
     70 C23        -7.0270   -2.1410    1.0040 c3        1 MOL     -0.297517
     71 C24        -6.5810   -3.6040    1.2110 c         1 MOL      0.459984
     72 O13        -6.9970   -4.3700    2.1000 o         1 MOL     -0.623518
     73 H30        -5.7230   -0.9690   -0.2930 hn        1 MOL      0.223127
     74 H31        -8.1040   -1.9980    1.0490 h1        1 MOL      0.138505
     75 H32        -6.5410   -1.5930    1.8080 h1        1 MOL      0.138505
     76 N7         -5.7130   -4.1290    0.3780 n         1 MOL      0.082308
     77 C25        -5.1110   -5.4860    0.4420 c3        1 MOL      0.345487
     78 C26        -4.3440   -5.9170    1.6920 c         1 MOL      0.367961
     79 O14        -4.3400   -7.0400    2.1810 o         1 MOL     -0.513017
     80 C27        -6.0230   -6.5150   -0.0940 c3        1 MOL     -0.211442
     81 C28        -6.7670   -6.2080   -1.3740 c3        1 MOL     -0.063155
     82 C29        -6.9130   -7.3740   -2.3310 c         1 MOL      0.609943
     83 N8         -7.9000   -7.1890   -3.1490 n         1 MOL     -0.781897
     84 O15        -6.4990   -8.5210   -2.1630 o         1 MOL     -0.559152
     85 H33        -5.2030   -3.4880   -0.2160 hn        1 MOL     -0.105169
     86 H34        -4.3080   -5.3410   -0.2720 h1        1 MOL     -0.025233
     87 H35        -6.7460   -6.7620    0.6910 hc        1 MOL      0.048792
     88 H36        -5.3440   -7.3540   -0.2560 hc        1 MOL      0.048792
     89 H37        -6.1720   -5.4210   -1.8490 hc        1 MOL      0.047634
     90 H38        -7.7090   -5.7120   -1.1880 hc        1 MOL      0.047634
     91 H39        -8.3020   -6.2580   -3.1500 hn        1 MOL      0.347721
     92 H40        -8.3460   -7.9500   -3.6480 hn        1 MOL      0.347721
     93 N9         -3.6490   -4.9250    2.2360 n         1 MOL     -0.253862
     94 C30        -2.9410   -4.9900    3.5340 c3        1 MOL     -0.210206
     95 C31        -1.4020   -4.4010    3.4650 c         1 MOL      0.593570
     96 O16        -0.6900   -4.4080    4.4690 o         1 MOL     -0.543048
     97 C32        -3.7500   -4.3960    4.7580 c3        1 MOL      0.409674
     98 C33        -3.9560   -2.8660    4.4870 c3        1 MOL     -0.462947
     99 C34        -5.0310   -5.1440    5.1480 c3        1 MOL     -0.462947
    100 H41        -3.6390   -4.0520    1.7240 hn        1 MOL      0.251170
    101 H42        -2.8500   -6.0700    3.6880 h1        1 MOL      0.115030
    102 H43        -3.0030   -4.4760    5.5470 hc        1 MOL     -0.057336
    103 H44        -2.9790   -2.4040    4.3460 hc        1 MOL      0.109525
    104 H45        -4.4600   -2.7090    3.5330 hc        1 MOL      0.109525
    105 H46        -4.4460   -2.4600    5.3760 hc        1 MOL      0.109525
    106 H47        -5.8490   -4.8840    4.4750 hc        1 MOL      0.109525
    107 H48        -4.9930   -6.2330    5.0860 hc        1 MOL      0.109525
    108 H49        -5.4100   -4.7360    6.0770 hc        1 MOL      0.109525
    109 N10        -0.9690   -4.0120    2.2200 n         1 MOL     -0.504516
    110 C35         0.2440   -3.1480    1.9620 c3        1 MOL      0.342179
    111 C36         0.9610   -3.4910    0.6240 c         1 MOL      0.439876
    112 O17         0.4460   -4.2510   -0.2010 o         1 MOL     -0.518019
    113 C37        -0.1810   -1.6730    2.0750 c3        1 MOL     -0.192946
    114 C38         0.9680   -0.7810    2.5890 c         1 MOL      0.657607
    115 N11         0.7380    0.5250    2.7260 n         1 MOL     -0.831523
    116 O18         2.1060   -1.2540    2.6730 o         1 MOL     -0.563433
    117 H50        -1.6210   -4.0020    1.4460 hn        1 MOL      0.193043
    118 H51         0.9640   -3.3780    2.7500 h1        1 MOL      0.001224
    119 H52        -1.0130   -1.6450    2.7780 hc        1 MOL      0.080601
    120 H53        -0.4560   -1.3190    1.0840 hc        1 MOL      0.080601
    121 H54        -0.1760    0.9410    2.6430 hn        1 MOL      0.375440
    122 H55         1.4520    1.2340    2.8100 hn        1 MOL      0.375440
    123 N12         2.1820   -2.9960    0.4040 n         1 MOL     -0.427693
    124 C39         2.9750   -3.2320   -0.8040 c3        1 MOL      0.215079
    125 C40         4.4240   -3.4910   -0.4190 c         1 MOL      0.528865
    126 O19         4.8360   -3.2910    0.7660 o         1 MOL     -0.570057
    127 C41         2.7530   -2.1130   -1.7960 c3        1 MOL     -0.140804
    128 C42         3.0600   -0.6700   -1.4280 ca        1 MOL      0.110552
    129 C43         2.0910    0.1200   -0.7870 ca        1 MOL     -0.096532
    130 C44         4.2930   -0.0660   -1.7980 ca        1 MOL     -0.096532
    131 C45         2.2640    1.5230   -0.5280 ca        1 MOL     -0.389168
    132 C46         4.4800    1.3120   -1.6300 ca        1 MOL     -0.389168
    133 C47         3.4680    2.1080   -1.0610 ca        1 MOL      0.470283
    134 O20         3.8220    3.3920   -0.7260 oh        1 MOL     -0.567690
    135 H56         2.5820   -2.4140    1.1200 hn        1 MOL      0.244624
    136 H57         2.7000   -4.1490   -1.3310 h1        1 MOL      0.030795
    137 H58         1.7210   -2.0770   -2.1340 hc        1 MOL      0.059593
    138 H59         3.3090   -2.3430   -2.7030 hc        1 MOL      0.059593
    139 H60         1.1420   -0.3560   -0.5560 ha        1 MOL      0.115952
    140 H61         5.0880   -0.6430   -2.2440 ha        1 MOL      0.115952
    141 H62         1.5890    2.1360    0.0550 ha        1 MOL      0.190425
    142 H63         5.4070    1.8370   -1.8310 ha        1 MOL      0.190425
    143 H64         3.0820    3.9690   -0.5060 ho        1 MOL      0.360678
    144 N13         5.2240   -3.9260   -1.3760 n         1 MOL     -0.480947
    145 C48         6.6730   -4.2000   -1.2290 c3        1 MOL      0.338443
    146 C49         7.4730   -3.3060   -2.1310 c         1 MOL      0.303761
    147 O21         7.7140   -3.6440   -3.2500 o         1 MOL     -0.519738
    148 C50         7.1070   -5.6730   -1.5310 c3        1 MOL     -0.134711
    149 C51         6.7140   -6.7230   -0.5400 c3        1 MOL     -0.172747
    150 C52         7.0050   -8.1410   -1.1160 c         1 MOL      0.660849
    151 O22         7.9430   -8.8480   -0.6680 o         1 MOL     -0.628462
    152 O23         6.2550   -8.6310   -2.0360 o         1 MOL     -0.628462
    153 H65         4.7240   -4.0910   -2.2370 hn        1 MOL      0.305830
    154 H66         6.9830   -3.9410   -0.2160 h1        1 MOL     -0.045248
    155 H67         8.1970   -5.6750   -1.5570 hc        1 MOL      0.056938
    156 H68         6.6860   -6.0540   -2.4630 hc        1 MOL      0.056938
    157 H69         5.6530   -6.6460   -0.3020 hc        1 MOL      0.040964
    158 H70         7.2490   -6.5880    0.4090 hc        1 MOL      0.040964
    159 N14         7.8410   -2.1130   -1.7410 n         1 MOL     -0.387268
    160 C53         7.5550   -1.4260   -0.4590 c3        1 MOL      0.472140
    161 C54         8.4540   -1.9450    0.8150 c         1 MOL      0.750842
    162 O24         9.3510   -2.7650    0.5960 o         1 MOL     -0.585002
    163 C55         7.7190    0.1160   -0.5670 c3        1 MOL      0.446313
    164 C56         9.0660    0.6710   -0.9590 c3        1 MOL     -1.563611
    165 C57         9.1640    2.1680   -0.7430 c         1 MOL      1.484119
    166 O25         9.5920    2.6080    0.3640 o         1 MOL     -0.772929
    167 O26         8.8150    2.9970   -1.5990 o         1 MOL     -0.772929
    168 H71         8.3580   -1.5540   -2.4020 hn        1 MOL      0.256088
    169 H72         6.5050   -1.6030   -0.2310 h1        1 MOL     -0.172989
    170 H73         7.5320    0.4600    0.4520 hc        1 MOL     -0.133548
    171 H74         6.8890    0.4390   -1.1840 hc        1 MOL     -0.133548
    172 H75         9.1720    0.3270   -1.9970 hc        1 MOL      0.309806
    173 H76         9.8180    0.2120   -0.3250 hc        1 MOL      0.309806
    174 N15         8.1750   -1.4380    2.0090 n         1 MOL     -0.525971
    175 C58         8.5710   -1.9050    3.3680 c3        1 MOL     -0.519235
    176 H77         9.5810   -1.5620    3.5890 h1        1 MOL      0.197190
    177 H78         7.8800   -1.4990    4.1070 h1        1 MOL      0.197190
    178 H79         8.5410   -2.9940    3.4020 h1        1 MOL      0.197190
    179 H80         7.3260   -0.8980    1.9990 hn        1 MOL      0.348131
    180 Ca1         8.8000    5.0610    0.0470 Ca        1 MOL      1.468642
    181 O27         9.7260    7.7380    0.2760 oh        1 MOL     -0.852618
    182 H81        10.5280    8.2520    0.3460 ho        1 MOL      0.370010
    183 H82         9.0220    8.3620    0.4540 ho        1 MOL      0.370010
    184 O28        11.2120    5.0370   -1.4010 oh        1 MOL     -0.852618
    185 H83        11.7770    5.8020   -1.4390 ho        1 MOL      0.370010
    186 H84        11.5850    4.4310   -2.0450 ho        1 MOL      0.370010
    187 O29        10.3270    5.5830    2.1210 oh        1 MOL     -0.852618
    188 H85         9.7690    6.0280    2.7670 ho        1 MOL      0.370010
    189 H86        11.2140    5.6720    2.4710 ho        1 MOL      0.370010
    190 O30         8.0060    6.0940   -2.2040 oh        1 MOL     -0.852618
    191 H87         8.6050    6.2420   -2.9340 ho        1 MOL      0.370010
    192 H88         7.1400    6.3360   -2.5590 ho        1 MOL      0.370010
    193 O31         6.6000    3.5090    0.4100 oh        1 MOL     -0.852618
    194 H89         5.9730    3.3550   -0.3000 ho        1 MOL      0.370010
    195 H90         6.2950    2.9550    1.1280 ho        1 MOL      0.370010
@<TRIPOS>BOND
     1    1    2 1   
     2    1    4 1   
     3    1    5 1   
     4    1    6 1   
     5    2    3 2   
     6    2    7 1   
     7    7    8 1   
     8    7   15 1   
     9    8    9 1   
    10    8   11 1   
    11    8   16 1   
    12    9   10 2   
    13    9   19 1   
    14   11   12 1   
    15   11   17 1   
    16   11   18 1   
    17   12   13 1   
    18   12   14 1   
    19   19   20 1   
    20   19   27 1   
    21   20   21 1   
    22   20   23 1   
    23   20   28 1   
    24   21   22 2   
    25   21   38 1   
    26   23   24 1   
    27   23   25 1   
    28   23   29 1   
    29   24   26 1   
    30   24   30 1   
    31   24   31 1   
    32   25   32 1   
    33   25   33 1   
    34   25   34 1   
    35   26   35 1   
    36   26   36 1   
    37   26   37 1   
    38   38   39 1   
    39   38   46 1   
    40   39   40 1   
    41   39   42 1   
    42   39   47 1   
    43   40   41 2   
    44   40   50 1   
    45   42   43 1   
    46   42   48 1   
    47   42   49 1   
    48   43   44 1   
    49   43   45 1   
    50   50   51 1   
    51   50   54 1   
    52   51   52 1   
    53   51   55 1   
    54   51   56 1   
    55   52   53 2   
    56   52   57 1   
    57   57   58 1   
    58   57   65 1   
    59   58   59 1   
    60   58   61 1   
    61   58   66 1   
    62   59   60 2   
    63   59   69 1   
    64   61   62 1   
    65   61   67 1   
    66   61   68 1   
    67   62   63 1   
    68   62   64 1   
    69   69   70 1   
    70   69   73 1   
    71   70   71 1   
    72   70   74 1   
    73   70   75 1   
    74   71   72 2   
    75   71   76 1   
    76   76   77 1   
    77   76   85 1   
    78   77   78 1   
    79   77   80 1   
    80   77   86 1   
    81   78   79 2   
    82   78   93 1   
    83   80   81 1   
    84   80   87 1   
    85   80   88 1   
    86   81   82 1   
    87   81   89 1   
    88   81   90 1   
    89   82   83 1   
    90   82   84 2   
    91   83   91 1   
    92   83   92 1   
    93   93   94 1   
    94   93  100 1   
    95   94   95 1   
    96   94   97 1   
    97   94  101 1   
    98   95   96 2   
    99   95  109 1   
   100   97   98 1   
   101   97   99 1   
   102   97  102 1   
   103   98  103 1   
   104   98  104 1   
   105   98  105 1   
   106   99  106 1   
   107   99  107 1   
   108   99  108 1   
   109  109  110 1   
   110  109  117 1   
   111  110  111 1   
   112  110  113 1   
   113  110  118 1   
   114  111  112 2   
   115  111  123 1   
   116  113  114 1   
   117  113  119 1   
   118  113  120 1   
   119  114  115 1   
   120  114  116 2   
   121  115  121 1   
   122  115  122 1   
   123  123  124 1   
   124  123  135 1   
   125  124  125 1   
   126  124  127 1   
   127  124  136 1   
   128  125  126 2   
   129  125  144 1   
   130  127  128 1   
   131  127  137 1   
   132  127  138 1   
   133  128  129 ar  
   134  128  130 ar  
   135  129  131 ar  
   136  129  139 1   
   137  130  132 ar  
   138  130  140 1   
   139  131  133 ar  
   140  131  141 1   
   141  132  133 ar  
   142  132  142 1   
   143  133  134 1   
   144  134  143 1   
   145  144  145 1   
   146  144  153 1   
   147  145  146 1   
   148  145  148 1   
   149  145  154 1   
   150  146  147 2   
   151  146  159 1   
   152  148  149 1   
   153  148  155 1   
   154  148  156 1   
   155  149  150 1   
   156  149  157 1   
   157  149  158 1   
   158  150  151 1   
   159  150  152 1   
   160  159  160 1   
   161  159  168 1   
   162  160  161 1   
   163  160  163 1   
   164  160  169 1   
   165  161  162 2   
   166  161  174 1   
   167  163  164 1   
   168  163  170 1   
   169  163  171 1   
   170  164  165 1   
   171  164  172 1   
   172  164  173 1   
   173  165  166 1   
   174  165  167 1   
   175  174  175 1   
   176  174  179 1   
   177  175  176 1   
   178  175  177 1   
   179  175  178 1   
   180  181  182 1   
   181  181  183 1   
   182  184  185 1   
   183  184  186 1   
   184  187  188 1   
   185  187  189 1   
   186  190  191 1   
   187  190  192 1   
   188  193  194 1   
   189  193  195 1   
@<TRIPOS>SUBSTRUCTURE
     1 MOL         1 TEMP              0 ****  ****    0 ROOT
