@<TRIPOS>MOLECULE
MOL
  178   175     1     0     0
SMALL
resp


@<TRIPOS>ATOM
      1 C1          7.2400    7.6270   -3.4210 c3        1 MOL     -0.396797
      2 C2          6.0910    6.6860   -2.9760 c         1 MOL      0.725259
      3 O1          4.9140    6.9670   -3.3820 o         1 MOL     -0.578322
      4 H1          7.7640    8.0020   -2.5410 hc        1 MOL      0.109540
      5 H2          7.9380    7.0750   -4.0500 hc        1 MOL      0.109540
      6 H3          6.8280    8.4650   -3.9820 hc        1 MOL      0.109540
      7 N1          6.2420    5.6210   -2.1060 n         1 MOL     -0.816433
      8 C3          7.4980    5.2780   -1.4020 c3        1 MOL      0.435782
      9 C4          7.3990    5.1430    0.1140 c         1 MOL      0.270960
     10 O2          8.4520    5.0710    0.7880 o         1 MOL     -0.528419
     11 C5          8.1070    4.0140   -2.1100 c3        1 MOL     -0.515213
     12 C6          7.1450    2.7960   -1.9990 c         1 MOL      0.976786
     13 O3          6.2750    2.6720   -1.0980 o         1 MOL     -0.850783
     14 O4          7.2900    1.7980   -2.8310 o         1 MOL     -0.850783
     15 H4          5.4400    5.0260   -1.9470 hn        1 MOL      0.407982
     16 H5          8.2120    6.0720   -1.6200 h1        1 MOL      0.004090
     17 H6          9.0670    3.7460   -1.6970 hc        1 MOL      0.130347
     18 H7          8.2150    4.2230   -3.1720 hc        1 MOL      0.130347
     19 N2          6.1950    4.9060    0.6250 n         1 MOL     -0.231388
     20 C7          5.8910    4.9870    2.0930 c3        1 MOL      0.041503
     21 C8          5.8630    3.6500    2.8580 c         1 MOL      0.410682
     22 O5          5.9210    3.6940    4.0940 o         1 MOL     -0.530564
     23 C9          4.6040    5.6610    2.2460 c3        1 MOL     -0.195268
     24 H8          5.4210    4.8600   -0.0070 hn        1 MOL      0.260205
     25 H9          6.5760    5.6730    2.5890 h1        1 MOL      0.099754
     26 H10         4.4980    6.5660    1.6610 hc        1 MOL      0.065230
     27 H11         3.8310    5.0620    1.7520 hc        1 MOL      0.065230
     28 H12         4.3380    5.7890    3.2940 hc        1 MOL      0.065230
     29 N3          5.6920    2.5490    2.0760 n         1 MOL     -0.234223
     30 C10         5.7170    1.1400    2.6180 c3        1 MOL     -0.050377
     31 C11         6.7330    0.2130    1.9100 c         1 MOL      0.467824
     32 O6          7.2000    0.5460    0.7900 o         1 MOL     -0.502405
     33 C12         4.2900    0.5840    2.6140 c3        1 MOL      0.051659
     34 C13         3.6320    0.5330    1.2280 c         1 MOL      0.453810
     35 O7          4.2260    0.8130    0.1700 o         1 MOL     -0.549203
     36 O8          2.3970    0.3740    1.1840 o         1 MOL     -0.549203
     37 H13         5.6520    2.7920    1.0990 hn        1 MOL      0.256830
     38 H14         5.9720    1.1370    3.6780 h1        1 MOL      0.050978
     39 H15         3.6200    1.0590    3.3230 hc        1 MOL     -0.004093
     40 H16         4.3490   -0.4740    2.8790 hc        1 MOL     -0.004093
     41 N4          6.9720   -0.9800    2.5350 n         1 MOL     -0.319047
     42 C14         7.8480   -2.0110    1.8950 c3        1 MOL     -0.246278
     43 C15         7.2500   -2.6220    0.6040 c         1 MOL      0.526946
     44 O9          6.3870   -2.1070   -0.0360 o         1 MOL     -0.513298
     45 H17         6.6810   -1.1710    3.4810 hn        1 MOL      0.291151
     46 H18         8.0120   -2.8230    2.6020 h1        1 MOL      0.120848
     47 H19         8.8240   -1.5590    1.7260 h1        1 MOL      0.120848
     48 N5          7.6670   -3.8470    0.3590 n         1 MOL     -0.438185
     49 C16         7.2230   -4.5690   -0.7550 c3        1 MOL      0.073095
     50 C17         5.7480   -4.9670   -0.4420 c         1 MOL      0.630378
     51 O10         5.5420   -5.6890    0.5060 o         1 MOL     -0.580884
     52 C18         8.1550   -5.7540   -1.0630 c3        1 MOL     -0.214855
     53 C19         7.6320   -6.5290   -2.2440 c         1 MOL      0.698174
     54 N6          8.2690   -7.6420   -2.5640 n         1 MOL     -0.843077
     55 O11         6.7490   -6.1240   -2.9970 o         1 MOL     -0.549110
     56 H20         8.3680   -4.3050    0.9210 hn        1 MOL      0.293040
     57 H21         7.2240   -3.9170   -1.6370 h1        1 MOL     -0.065346
     58 H22         8.4030   -6.3970   -0.2150 hc        1 MOL      0.073169
     59 H23         9.1700   -5.4820   -1.3230 hc        1 MOL      0.073169
     60 H24         9.0780   -8.0310   -2.0870 hn        1 MOL      0.374978
     61 H25         7.9160   -8.1410   -3.3640 hn        1 MOL      0.374978
     62 N7          4.8650   -4.2470   -1.1080 n         1 MOL     -0.483468
     63 C20         3.4380   -4.2010   -0.6610 c3        1 MOL     -0.029020
     64 C21         3.0600   -2.7160   -0.4740 c         1 MOL      0.662223
     65 O12         3.6040   -1.8870   -1.1860 o         1 MOL     -0.641709
     66 H26         5.0770   -3.7490   -1.9610 hn        1 MOL      0.334875
     67 H27         3.3250   -4.7480    0.2680 h1        1 MOL      0.099124
     68 H28         2.8330   -4.7380   -1.3920 h1        1 MOL      0.099124
     69 N8          2.1710   -2.2970    0.4370 n         1 MOL     -0.506366
     70 C22         1.4930   -3.1840    1.3730 c3        1 MOL      0.056114
     71 C23         0.0230   -2.7740    1.6110 c         1 MOL      0.349227
     72 O13        -0.8890   -3.5850    1.9580 o         1 MOL     -0.517091
     73 C24         2.1470   -3.1980    2.7260 c3        1 MOL      0.189077
     74 C25         1.6720   -4.3220    3.6490 c3        1 MOL     -0.776879
     75 O14         3.5300   -3.3800    2.5170 oh        1 MOL     -0.457020
     76 H29         2.0890   -1.2940    0.5820 hn        1 MOL      0.271460
     77 H30         1.5290   -4.2140    1.0020 h1        1 MOL      0.088738
     78 H31         1.9100   -2.2530    3.2140 h1        1 MOL      0.072742
     79 H32         3.8970   -3.1660    3.3760 ho        1 MOL      0.342611
     80 H33         0.6470   -4.1600    3.9910 hc        1 MOL      0.207840
     81 H34         1.7150   -5.2720    3.1220 hc        1 MOL      0.207840
     82 H35         2.3110   -4.4370    4.5240 hc        1 MOL      0.207840
     83 N9         -0.2710   -1.4120    1.4340 n         1 MOL     -0.161705
     84 C26        -1.5600   -0.7210    1.5720 c3        1 MOL      0.190142
     85 C27        -2.0360   -0.2530    0.1920 c         1 MOL      0.202946
     86 O15        -1.3420    0.6310   -0.3000 o         1 MOL     -0.511670
     87 C28        -1.5140    0.4240    2.5940 c3        1 MOL      0.120084
     88 C29        -1.1130    0.0120    4.0150 c3        1 MOL      0.022098
     89 C30        -2.8690    1.2250    2.5650 c3        1 MOL     -0.324568
     90 C31         0.4050    0.2270    4.2570 c3        1 MOL     -0.362462
     91 H36         0.4910   -0.8120    1.1620 hn        1 MOL      0.209529
     92 H37        -2.2530   -1.4770    1.9370 h1        1 MOL      0.017676
     93 H38        -0.6950    1.0590    2.2660 hc        1 MOL      0.013433
     94 H39        -1.4880   -0.9940    4.1850 hc        1 MOL     -0.002539
     95 H40        -1.6400    0.5870    4.7750 hc        1 MOL     -0.002539
     96 H41        -2.8080    1.9500    3.3750 hc        1 MOL      0.104096
     97 H42        -2.9500    1.7290    1.6030 hc        1 MOL      0.104096
     98 H43        -3.7600    0.6330    2.7650 hc        1 MOL      0.104096
     99 H44         0.7660    0.0130    5.2640 hc        1 MOL      0.086929
    100 H45         1.0590   -0.1840    3.4790 hc        1 MOL      0.086929
    101 H46         0.6980    1.2750    4.2560 hc        1 MOL      0.086929
    102 N10        -3.2390   -0.5710   -0.3340 n         1 MOL     -0.053751
    103 C32        -4.2470   -1.4120    0.3230 c3        1 MOL      0.013809
    104 C33        -5.6640   -0.8780   -0.1310 c         1 MOL      0.262909
    105 O16        -5.8800   -0.0900   -1.1110 o         1 MOL     -0.434819
    106 C34        -4.0540   -2.8970    0.0490 c3        1 MOL     -0.049742
    107 C35        -3.8550   -3.2210   -1.4440 c         1 MOL      0.587788
    108 O17        -4.8130   -3.0890   -2.2880 o         1 MOL     -0.685480
    109 O18        -2.6570   -3.5070   -1.7730 o         1 MOL     -0.685480
    110 H47        -3.5690   -0.0760   -1.1530 hn        1 MOL      0.220934
    111 H48        -4.1590   -1.3530    1.4060 h1        1 MOL      0.053132
    112 H49        -4.8660   -3.5410    0.3930 hc        1 MOL     -0.010807
    113 H50        -3.1800   -3.2550    0.5740 hc        1 MOL     -0.010807
    114 N11        -6.6780   -1.4210    0.5440 n         1 MOL     -0.380578
    115 C36        -8.0750   -1.3630    0.0530 c3        1 MOL      0.416393
    116 C37        -9.1530   -0.8230    1.1160 c         1 MOL      0.172753
    117 O19        -8.9200   -1.0280    2.3090 o         1 MOL     -0.487587
    118 C38        -8.3900   -2.6870   -0.5660 c3        1 MOL     -0.079376
    119 C39        -9.7790   -2.7530   -1.1400 ca        1 MOL     -0.063506
    120 C40       -10.8940   -3.0820   -0.3880 ca        1 MOL     -0.028311
    121 C41        -9.9150   -2.6180   -2.5360 ca        1 MOL     -0.028311
    122 C42       -12.1920   -3.1770   -0.9460 ca        1 MOL     -0.227095
    123 C43       -11.1480   -2.6140   -3.1310 ca        1 MOL     -0.227095
    124 C44       -12.2620   -2.8260   -2.3520 ca        1 MOL     -0.024256
    125 H51        -6.4950   -1.9960    1.3480 hn        1 MOL      0.277158
    126 H52        -8.1750   -0.6570   -0.7660 h1        1 MOL      0.003607
    127 H53        -8.2040   -3.4530    0.1940 hc        1 MOL      0.030392
    128 H54        -7.6720   -2.9430   -1.3480 hc        1 MOL      0.030392
    129 H55       -10.8610   -3.3360    0.6600 ha        1 MOL      0.099638
    130 H56        -8.9920   -2.3520   -3.0280 ha        1 MOL      0.099638
    131 H57       -13.0540   -3.5800   -0.4210 ha        1 MOL      0.131476
    132 H58       -11.1810   -2.4280   -4.2030 ha        1 MOL      0.131476
    133 H59       -13.2200   -2.9140   -2.8380 ha        1 MOL      0.060421
    134 N12       -10.0630    0.0950    0.6930 n         1 MOL      0.045947
    135 C45       -10.3280    0.5550   -0.6520 c3        1 MOL     -0.014817
    136 C46        -9.3320    1.5180   -1.2120 c         1 MOL      0.491054
    137 O20        -9.1320    1.5600   -2.4690 o         1 MOL     -0.571916
    138 C47       -11.7890    1.0050   -0.6660 c3        1 MOL     -0.095411
    139 C48       -12.5300    0.5110    0.6360 c3        1 MOL     -0.050319
    140 C49       -11.2340    0.4520    1.5390 c3        1 MOL     -0.146650
    141 H60       -10.3890   -0.2970   -1.3360 h1        1 MOL      0.093214
    142 H61       -11.8740    2.0920   -0.6590 hc        1 MOL      0.042112
    143 H62       -12.3240    0.7210   -1.5740 hc        1 MOL      0.042112
    144 H63       -13.2510    1.2160    1.0400 hc        1 MOL      0.027289
    145 H64       -13.0390   -0.4580    0.6170 hc        1 MOL      0.027289
    146 H65       -11.1260    1.4690    1.9120 h1        1 MOL      0.086990
    147 H66       -11.3850   -0.2210    2.3790 h1        1 MOL      0.086990
    148 N13        -8.6120    2.2580   -0.3600 n         1 MOL     -0.365641
    149 C50        -7.4780    3.1280   -0.7750 c3        1 MOL      0.143455
    150 C51        -7.9720    4.3840   -1.4960 c         1 MOL      0.384177
    151 O21        -8.4900    5.2290   -0.7510 o         1 MOL     -0.572976
    152 C52        -6.7310    3.6280    0.5950 c3        1 MOL      0.192554
    153 C53        -6.1510    2.5390    1.5150 c3        1 MOL     -0.104733
    154 C54        -5.5480    3.0840    2.8040 c         1 MOL      0.751017
    155 O22        -6.0490    2.6160    3.8650 o         1 MOL     -0.717003
    156 O23        -4.6800    3.9240    2.8350 o         1 MOL     -0.717003
    157 H67        -8.6630    2.0150    0.6210 hn        1 MOL      0.247916
    158 H68        -6.8440    2.4980   -1.4060 h1        1 MOL      0.053781
    159 H69        -7.5070    4.0580    1.2300 hc        1 MOL     -0.036586
    160 H70        -5.9690    4.3850    0.3960 hc        1 MOL     -0.036586
    161 H71        -5.4170    2.0860    0.8390 hc        1 MOL     -0.062087
    162 H72        -6.8930    1.7630    1.6830 hc        1 MOL     -0.062087
    163 N14        -7.8780    4.6370   -2.8100 n         1 MOL     -0.310181
    164 C55        -7.2870    3.7770   -3.8660 c3        1 MOL     -0.199580
    165 H73        -8.0820    3.2420   -4.3850 h1        1 MOL      0.101484
    166 H74        -6.7410    4.3960   -4.5770 h1        1 MOL      0.101484
    167 H75        -6.6040    3.0590   -3.4100 h1        1 MOL      0.101484
    168 H76        -8.4020    5.4670   -3.0510 hn        1 MOL      0.259808
    169 Ca1         5.9900    0.0690   -1.4800 Ca        1 MOL      1.766421
    170 O24         4.1660    1.4020   -2.9260 oh        1 MOL     -0.825179
    171 H77         3.3580    1.4860   -2.4170 ho        1 MOL      0.404101
    172 H78         3.9120    1.6390   -3.8220 ho        1 MOL      0.404101
    173 O25         8.5090   -0.7820   -1.6840 oh        1 MOL     -0.825179
    174 H79         8.7080   -1.5870   -2.1780 ho        1 MOL      0.404101
    175 H80         9.3630   -0.4990   -1.3510 ho        1 MOL      0.404101
    176 O26         6.3570   -1.7740   -3.4570 oh        1 MOL     -0.825179
    177 H81         5.7470   -2.1730   -4.0740 ho        1 MOL      0.404101
    178 H82         7.2200   -2.1020   -3.7190 ho        1 MOL      0.404101
@<TRIPOS>BOND
     1    1    2 1   
     2    1    4 1   
     3    1    5 1   
     4    1    6 1   
     5    2    3 2   
     6    2    7 1   
     7    7    8 1   
     8    7   15 1   
     9    8    9 1   
    10    8   11 1   
    11    8   16 1   
    12    9   10 2   
    13    9   19 1   
    14   11   12 1   
    15   11   17 1   
    16   11   18 1   
    17   12   13 1   
    18   12   14 1   
    19   19   20 1   
    20   19   24 1   
    21   20   21 1   
    22   20   23 1   
    23   20   25 1   
    24   21   22 2   
    25   21   29 1   
    26   23   26 1   
    27   23   27 1   
    28   23   28 1   
    29   29   30 1   
    30   29   37 1   
    31   30   31 1   
    32   30   33 1   
    33   30   38 1   
    34   31   32 2   
    35   31   41 1   
    36   33   34 1   
    37   33   39 1   
    38   33   40 1   
    39   34   35 1   
    40   34   36 1   
    41   41   42 1   
    42   41   45 1   
    43   42   43 1   
    44   42   46 1   
    45   42   47 1   
    46   43   44 2   
    47   43   48 1   
    48   48   49 1   
    49   48   56 1   
    50   49   50 1   
    51   49   52 1   
    52   49   57 1   
    53   50   51 2   
    54   50   62 1   
    55   52   53 1   
    56   52   58 1   
    57   52   59 1   
    58   53   54 1   
    59   53   55 2   
    60   54   60 1   
    61   54   61 1   
    62   62   63 1   
    63   62   66 1   
    64   63   64 1   
    65   63   67 1   
    66   63   68 1   
    67   64   65 2   
    68   64   69 1   
    69   69   70 1   
    70   69   76 1   
    71   70   71 1   
    72   70   73 1   
    73   70   77 1   
    74   71   72 2   
    75   71   83 1   
    76   73   74 1   
    77   73   75 1   
    78   73   78 1   
    79   74   80 1   
    80   74   81 1   
    81   74   82 1   
    82   75   79 1   
    83   83   84 1   
    84   83   91 1   
    85   84   85 1   
    86   84   87 1   
    87   84   92 1   
    88   85   86 2   
    89   85  102 1   
    90   87   88 1   
    91   87   89 1   
    92   87   93 1   
    93   88   90 1   
    94   88   94 1   
    95   88   95 1   
    96   89   96 1   
    97   89   97 1   
    98   89   98 1   
    99   90   99 1   
   100   90  100 1   
   101   90  101 1   
   102  102  103 1   
   103  102  110 1   
   104  103  104 1   
   105  103  106 1   
   106  103  111 1   
   107  104  105 2   
   108  104  114 1   
   109  106  107 1   
   110  106  112 1   
   111  106  113 1   
   112  107  108 1   
   113  107  109 1   
   114  114  115 1   
   115  114  125 1   
   116  115  116 1   
   117  115  118 1   
   118  115  126 1   
   119  116  117 2   
   120  116  134 1   
   121  118  119 1   
   122  118  127 1   
   123  118  128 1   
   124  119  120 ar  
   125  119  121 ar  
   126  120  122 ar  
   127  120  129 1   
   128  121  123 ar  
   129  121  130 1   
   130  122  124 ar  
   131  122  131 1   
   132  123  124 ar  
   133  123  132 1   
   134  124  133 1   
   135  134  135 1   
   136  134  140 1   
   137  135  136 1   
   138  135  138 1   
   139  135  141 1   
   140  136  137 2   
   141  136  148 1   
   142  138  139 1   
   143  138  142 1   
   144  138  143 1   
   145  139  140 1   
   146  139  144 1   
   147  139  145 1   
   148  140  146 1   
   149  140  147 1   
   150  148  149 1   
   151  148  157 1   
   152  149  150 1   
   153  149  152 1   
   154  149  158 1   
   155  150  151 2   
   156  150  163 1   
   157  152  153 1   
   158  152  159 1   
   159  152  160 1   
   160  153  154 1   
   161  153  161 1   
   162  153  162 1   
   163  154  155 1   
   164  154  156 1   
   165  163  164 1   
   166  163  168 1   
   167  164  165 1   
   168  164  166 1   
   169  164  167 1   
   170  170  171 1   
   171  170  172 1   
   172  173  174 1   
   173  173  175 1   
   174  176  177 1   
   175  176  178 1   
@<TRIPOS>SUBSTRUCTURE
     1 MOL         1 TEMP              0 ****  ****    0 ROOT
