@<TRIPOS>MOLECULE
MOL
  181   177     1     0     0
SMALL
resp


@<TRIPOS>ATOM
      1 C1          6.8360    3.7040    4.8630 c3        1 MOL     -0.261433
      2 C2          6.1540    2.6300    4.0080 c         1 MOL      0.757304
      3 O1          4.9600    2.5670    4.0160 o         1 MOL     -0.582053
      4 H1          7.9180    3.6150    4.7620 hc        1 MOL      0.057659
      5 H2          6.5210    4.6910    4.5270 hc        1 MOL      0.057659
      6 H3          6.5570    3.5690    5.9080 hc        1 MOL      0.057659
      7 N1          6.8780    1.7100    3.3220 n         1 MOL     -0.606705
      8 C3          8.3290    1.5670    3.2020 c3        1 MOL     -0.006799
      9 C4          8.6910    0.0880    3.1650 c         1 MOL      0.545518
     10 O2          7.8640   -0.6660    3.6020 o         1 MOL     -0.433372
     11 C5          8.8130    2.3350    1.9240 c3        1 MOL     -0.386434
     12 C6          8.1670    1.9190    0.6240 c         1 MOL      0.799628
     13 O3          7.4940    2.7780    0.0990 o         1 MOL     -0.691623
     14 O4          8.4600    0.8900   -0.0000 o         1 MOL     -0.691623
     15 H4          6.3330    0.9350    2.9560 hn        1 MOL      0.342242
     16 H5          8.7670    1.9350    4.1320 h1        1 MOL      0.112490
     17 H6          9.8770    2.1480    1.7920 hc        1 MOL      0.085540
     18 H7          8.6270    3.4040    1.9970 hc        1 MOL      0.085540
     19 N2          9.7610   -0.2840    2.4850 n         1 MOL     -0.624929
     20 C7         10.1100   -1.6890    2.3080 c3        1 MOL      0.250244
     21 C8          9.0630   -2.6120    1.6840 c         1 MOL      0.394186
     22 O5          9.0190   -3.8140    2.0210 o         1 MOL     -0.540736
     23 C9         10.8460   -2.2460    3.6050 c3        1 MOL     -0.318427
     24 H8         10.1880    0.4310    1.9070 hn        1 MOL      0.354443
     25 H9         10.8530   -1.7270    1.5070 h1        1 MOL      0.034364
     26 H10        11.3430   -3.1920    3.3860 hc        1 MOL      0.087418
     27 H11        11.6390   -1.6220    4.0100 hc        1 MOL      0.087418
     28 H12        10.1610   -2.3840    4.4400 hc        1 MOL      0.087418
     29 N3          8.1790   -1.9970    0.9190 n         1 MOL     -0.194647
     30 C10         7.0330   -2.7860    0.3590 c3        1 MOL      0.013505
     31 C11         6.8180   -2.5680   -1.1510 c         1 MOL      0.425544
     32 O6          6.9600   -1.4440   -1.6800 o         1 MOL     -0.523099
     33 C12         5.7390   -2.6300    1.1560 c3        1 MOL     -0.067881
     34 C13         5.3300   -1.1830    1.4370 c         1 MOL      0.594308
     35 O7          4.3520   -0.9890    2.2020 o         1 MOL     -0.625353
     36 O8          5.9260   -0.2220    0.8470 o         1 MOL     -0.625353
     37 H13         8.1120   -0.9920    0.9330 hn        1 MOL      0.080195
     38 H14         7.3660   -3.8070    0.5240 h1        1 MOL      0.041217
     39 H15         5.7990   -3.1070    2.1350 hc        1 MOL      0.041795
     40 H16         4.9280   -3.2300    0.7270 hc        1 MOL      0.041795
     41 N4          6.3840   -3.6130   -1.8050 n         1 MOL     -0.321575
     42 C14         5.9190   -3.5160   -3.2350 c3        1 MOL     -0.253496
     43 C15         4.5860   -2.7440   -3.4770 c         1 MOL      0.625354
     44 O9          4.3190   -2.0010   -4.4480 o         1 MOL     -0.586433
     45 H17         6.2600   -4.4920   -1.3110 hn        1 MOL      0.283914
     46 H18         5.6860   -4.5300   -3.5770 h1        1 MOL      0.143203
     47 H19         6.6550   -3.1530   -3.9510 h1        1 MOL      0.143203
     48 N5          3.7670   -2.8340   -2.4430 n         1 MOL     -0.504617
     49 C16         2.4730   -2.1230   -2.2840 c3        1 MOL      0.058338
     50 C17         2.6440   -0.6190   -2.0820 c         1 MOL      0.509048
     51 O10         3.6650   -0.1220   -1.7020 o         1 MOL     -0.487123
     52 C18         1.6520   -2.7430   -1.1550 c3        1 MOL     -0.134695
     53 C19         1.1400   -4.1140   -1.6150 c         1 MOL      0.585041
     54 N6          0.5590   -4.8690   -0.6780 n         1 MOL     -0.783819
     55 O11         1.2040   -4.5550   -2.7370 o         1 MOL     -0.514350
     56 H20         4.1670   -3.4250   -1.7180 hn        1 MOL      0.316322
     57 H21         1.8670   -2.2470   -3.1760 h1        1 MOL      0.101827
     58 H22         0.9110   -2.0700   -0.7390 hc        1 MOL      0.052148
     59 H23         2.2660   -2.9890   -0.2910 hc        1 MOL      0.052148
     60 H24         0.4280   -4.5210    0.2560 hn        1 MOL      0.377188
     61 H25         0.2270   -5.7880   -0.9400 hn        1 MOL      0.377188
     62 N7          1.5450    0.1030   -2.2740 n         1 MOL     -0.488303
     63 C20         1.2580    1.5420   -2.1060 c3        1 MOL      0.096037
     64 C21         0.6780    2.2060   -3.2820 c         1 MOL      0.649707
     65 O12         0.6540    1.5980   -4.3470 o         1 MOL     -0.570292
     66 H26         0.7120   -0.3550   -2.6160 hn        1 MOL      0.298909
     67 H27         2.1710    2.1120   -1.8940 h1        1 MOL      0.050931
     68 H28         0.5850    1.7300   -1.2660 h1        1 MOL      0.050931
     69 N8          0.1720    3.4260   -3.1750 n         1 MOL     -0.666764
     70 C22        -0.1240    4.1200   -1.9050 c3        1 MOL      0.002198
     71 C23        -1.4790    3.6600   -1.4200 c         1 MOL      0.562582
     72 O13        -2.3680    3.5570   -2.3060 o         1 MOL     -0.518230
     73 C24        -0.0780    5.6880   -2.1180 c3        1 MOL      0.377462
     74 C25        -0.1890    6.5820   -0.9260 c3        1 MOL     -0.247230
     75 O14         1.0750    6.1430   -2.7130 oh        1 MOL     -0.577737
     76 H29        -0.1960    3.9330   -3.9650 hn        1 MOL      0.356296
     77 H30         0.6500    3.9190   -1.1670 h1        1 MOL      0.036626
     78 H31        -0.9020    5.9360   -2.7900 h1        1 MOL     -0.016745
     79 H32         0.8680    5.9930   -3.6420 ho        1 MOL      0.353826
     80 H33        -1.0010    6.2730   -0.2660 hc        1 MOL      0.071047
     81 H34         0.7110    6.4730   -0.3170 hc        1 MOL      0.071047
     82 H35        -0.2010    7.6230   -1.2370 hc        1 MOL      0.071047
     83 N9         -1.6550    3.3770   -0.0940 n         1 MOL     -0.474754
     84 C26        -2.9660    2.9730    0.4530 c3        1 MOL      0.078205
     85 C27        -3.6450    4.2410    1.0840 c         1 MOL      0.575115
     86 O15        -2.9400    4.9990    1.7560 o         1 MOL     -0.580747
     87 C28        -2.6590    1.8700    1.5220 c3        1 MOL      0.143923
     88 C29        -1.7340    0.7360    1.1160 c3        1 MOL      0.087219
     89 C30        -3.7460    1.3210    2.3850 c3        1 MOL     -0.213606
     90 C31        -2.1050   -0.0500   -0.1040 c3        1 MOL     -0.426323
     91 H36        -0.8960    3.3550    0.5700 hn        1 MOL      0.256082
     92 H37        -3.5900    2.5790   -0.3450 h1        1 MOL      0.051507
     93 H38        -2.0760    2.4700    2.2210 hc        1 MOL     -0.030945
     94 H39        -1.5190    0.2020    2.0370 hc        1 MOL     -0.021423
     95 H40        -0.7450    1.1320    0.8860 hc        1 MOL     -0.021423
     96 H41        -3.3530    0.8530    3.2930 hc        1 MOL      0.061212
     97 H42        -4.3340    2.1820    2.6930 hc        1 MOL      0.061212
     98 H43        -4.3360    0.5850    1.8440 hc        1 MOL      0.061212
     99 H44        -1.9940    0.6180   -0.9670 hc        1 MOL      0.115135
    100 H45        -1.4350   -0.9040   -0.1670 hc        1 MOL      0.115135
    101 H46        -3.1770   -0.2450   -0.1530 hc        1 MOL      0.115135
    102 N10        -4.9260    4.5900    0.8620 n         1 MOL     -0.437753
    103 C32        -6.0230    4.0260    0.0320 c3        1 MOL      0.054002
    104 C33        -6.7600    2.8300    0.7280 c         1 MOL      0.667911
    105 O16        -6.5670    2.6100    1.9270 o         1 MOL     -0.561535
    106 C34        -7.1140    5.0610   -0.3670 c3        1 MOL     -0.142400
    107 C35        -7.5950    6.1430    0.6090 c         1 MOL      0.721536
    108 O17        -8.8120    6.2350    0.8310 o         1 MOL     -0.716891
    109 O18        -6.7020    6.8600    1.1500 o         1 MOL     -0.716891
    110 H47        -5.2670    5.3880    1.3880 hn        1 MOL      0.273438
    111 H48        -5.4980    3.6630   -0.8440 h1        1 MOL      0.017156
    112 H49        -8.0030    4.5260   -0.7150 hc        1 MOL      0.008498
    113 H50        -6.8530    5.6530   -1.2500 hc        1 MOL      0.008498
    114 N11        -7.4520    2.0720   -0.0970 n         1 MOL     -0.547587
    115 C36        -7.8430    0.6800    0.2620 c3        1 MOL      0.077945
    116 C37        -8.2170   -0.0280   -1.0430 c         1 MOL      0.358931
    117 O19        -8.7350    0.6340   -2.0010 o         1 MOL     -0.508645
    118 C38        -9.0780    0.6510    1.1750 c3        1 MOL     -0.124962
    119 C39        -9.6630   -0.6760    1.5820 ca        1 MOL     -0.020948
    120 C40       -10.7450   -1.2750    0.8670 ca        1 MOL     -0.103130
    121 C41        -9.1950   -1.3160    2.7070 ca        1 MOL     -0.103130
    122 C42       -11.1310   -2.6080    1.1190 ca        1 MOL     -0.147016
    123 C43        -9.6770   -2.5390    3.0630 ca        1 MOL     -0.147016
    124 C44       -10.5480   -3.2480    2.2360 ca        1 MOL     -0.097531
    125 H51        -7.7530    2.3410   -1.0160 hn        1 MOL      0.310479
    126 H52        -6.9770    0.1940    0.7140 h1        1 MOL      0.036853
    127 H53        -9.8970    1.2480    0.7830 hc        1 MOL      0.094307
    128 H54        -8.8650    1.2640    2.0540 hc        1 MOL      0.094307
    129 H55       -11.2440   -0.8050    0.0340 ha        1 MOL      0.110752
    130 H56        -8.5320   -0.7970    3.3870 ha        1 MOL      0.110752
    131 H57       -11.8920   -3.1160    0.5500 ha        1 MOL      0.111536
    132 H58        -9.2160   -3.0390    3.9020 ha        1 MOL      0.111536
    133 H59       -10.8040   -4.2540    2.5600 ha        1 MOL      0.093436
    134 N12        -8.1120   -1.4290   -1.1210 n         1 MOL     -0.104034
    135 C45        -7.4670   -2.3160   -0.1260 c3        1 MOL      0.682124
    136 C46        -5.9560   -2.2090   -0.0170 c         1 MOL      0.161121
    137 O20        -5.3830   -1.2070   -0.4720 o         1 MOL     -0.520581
    138 C47        -7.9280   -3.7200   -0.5340 c3        1 MOL      0.194094
    139 C48        -8.8420   -3.6220   -1.7030 c3        1 MOL     -0.068513
    140 C49        -8.5020   -2.1860   -2.2480 c3        1 MOL     -0.099159
    141 H60        -7.9060   -2.2020    0.8660 h1        1 MOL     -0.210828
    142 H61        -7.0980   -4.3680   -0.7950 hc        1 MOL     -0.087081
    143 H62        -8.4700   -4.1590    0.3110 hc        1 MOL     -0.087081
    144 H63        -8.6410   -4.3410   -2.4990 hc        1 MOL      0.020003
    145 H64        -9.8830   -3.8170   -1.4910 hc        1 MOL      0.020003
    146 H65        -7.6960   -2.1760   -2.9830 h1        1 MOL      0.050466
    147 H66        -9.4200   -1.7150   -2.6020 h1        1 MOL      0.050466
    148 N13        -5.3220   -3.1760    0.6080 n         1 MOL     -0.231359
    149 C50        -3.9130   -3.1250    1.0150 c3        1 MOL      0.371546
    150 C51        -3.4280   -4.1170    2.1080 c         1 MOL      0.270404
    151 O21        -2.4170   -4.7700    1.9810 o         1 MOL     -0.501321
    152 C52        -3.0280   -3.3160   -0.2790 c3        1 MOL     -0.119464
    153 C53        -2.9720   -4.6630   -0.9830 c3        1 MOL     -0.169550
    154 C54        -4.2940   -5.3490   -1.1490 c         1 MOL      0.730369
    155 O22        -4.7150   -6.0910   -0.2480 o         1 MOL     -0.728611
    156 O23        -4.9640   -5.1530   -2.1620 o         1 MOL     -0.728611
    157 H67        -5.9040   -3.9490    0.9130 hn        1 MOL      0.191577
    158 H68        -3.7500   -2.1410    1.4590 h1        1 MOL     -0.018618
    159 H69        -1.9930   -3.0720   -0.0140 hc        1 MOL      0.056409
    160 H70        -3.3300   -2.5990   -1.0430 hc        1 MOL      0.056409
    161 H71        -2.3090   -5.3190   -0.4120 hc        1 MOL      0.018172
    162 H72        -2.6420   -4.4610   -2.0050 hc        1 MOL      0.018172
    163 N14        -3.9680   -4.0270    3.3090 n         1 MOL     -0.274777
    164 C55        -5.0300   -3.1460    3.9250 c3        1 MOL     -0.148166
    165 H73        -6.0140   -3.4770    3.5940 h1        1 MOL      0.078097
    166 H74        -4.9720   -3.2110    5.0120 h1        1 MOL      0.078097
    167 H75        -4.8720   -2.1130    3.6130 h1        1 MOL      0.078097
    168 H76        -3.4580   -4.5270    4.0250 hn        1 MOL      0.253729
    169 Ca1         6.2560    1.0280   -1.3740 Ca        1 MOL      1.715600
    170 O24         5.4650    3.1300   -3.0300 oh        1 MOL     -0.849603
    171 H77         5.9100    3.9710   -3.0820 ho        1 MOL      0.413265
    172 H78         5.0900    3.0080   -3.8990 ho        1 MOL      0.413265
    173 O25         8.3500    1.4930   -2.9580 oh        1 MOL     -0.849603
    174 H79         8.1750    1.3170   -3.8820 ho        1 MOL      0.413265
    175 H80         9.1520    2.0060   -2.9640 ho        1 MOL      0.413265
    176 O26         5.4830    0.4030   -3.9340 oh        1 MOL     -0.849603
    177 H81         4.9160    1.0930   -4.2630 ho        1 MOL      0.413265
    178 H82         5.0210   -0.4030   -4.1340 ho        1 MOL      0.413265
    179 O27         4.1840    2.2250   -0.1630 oh        1 MOL     -0.849603
    180 H83         3.7220    3.0400   -0.3610 ho        1 MOL      0.413265
    181 H84         3.6920    1.8390    0.5670 ho        1 MOL      0.413265
@<TRIPOS>BOND
     1    1    2 1   
     2    1    4 1   
     3    1    5 1   
     4    1    6 1   
     5    2    3 2   
     6    2    7 1   
     7    7    8 1   
     8    7   15 1   
     9    8    9 1   
    10    8   11 1   
    11    8   16 1   
    12    9   10 2   
    13    9   19 1   
    14   11   12 1   
    15   11   17 1   
    16   11   18 1   
    17   12   13 1   
    18   12   14 1   
    19   19   20 1   
    20   19   24 1   
    21   20   21 1   
    22   20   23 1   
    23   20   25 1   
    24   21   22 2   
    25   21   29 1   
    26   23   26 1   
    27   23   27 1   
    28   23   28 1   
    29   29   30 1   
    30   29   37 1   
    31   30   31 1   
    32   30   33 1   
    33   30   38 1   
    34   31   32 2   
    35   31   41 1   
    36   33   34 1   
    37   33   39 1   
    38   33   40 1   
    39   34   35 1   
    40   34   36 1   
    41   41   42 1   
    42   41   45 1   
    43   42   43 1   
    44   42   46 1   
    45   42   47 1   
    46   43   44 2   
    47   43   48 1   
    48   48   49 1   
    49   48   56 1   
    50   49   50 1   
    51   49   52 1   
    52   49   57 1   
    53   50   51 2   
    54   50   62 1   
    55   52   53 1   
    56   52   58 1   
    57   52   59 1   
    58   53   54 1   
    59   53   55 2   
    60   54   60 1   
    61   54   61 1   
    62   62   63 1   
    63   62   66 1   
    64   63   64 1   
    65   63   67 1   
    66   63   68 1   
    67   64   65 2   
    68   64   69 1   
    69   69   70 1   
    70   69   76 1   
    71   70   71 1   
    72   70   73 1   
    73   70   77 1   
    74   71   72 2   
    75   71   83 1   
    76   73   74 1   
    77   73   75 1   
    78   73   78 1   
    79   74   80 1   
    80   74   81 1   
    81   74   82 1   
    82   75   79 1   
    83   83   84 1   
    84   83   91 1   
    85   84   85 1   
    86   84   87 1   
    87   84   92 1   
    88   85   86 2   
    89   85  102 1   
    90   87   88 1   
    91   87   89 1   
    92   87   93 1   
    93   88   90 1   
    94   88   94 1   
    95   88   95 1   
    96   89   96 1   
    97   89   97 1   
    98   89   98 1   
    99   90   99 1   
   100   90  100 1   
   101   90  101 1   
   102  102  103 1   
   103  102  110 1   
   104  103  104 1   
   105  103  106 1   
   106  103  111 1   
   107  104  105 2   
   108  104  114 1   
   109  106  107 1   
   110  106  112 1   
   111  106  113 1   
   112  107  108 1   
   113  107  109 1   
   114  114  115 1   
   115  114  125 1   
   116  115  116 1   
   117  115  118 1   
   118  115  126 1   
   119  116  117 2   
   120  116  134 1   
   121  118  119 1   
   122  118  127 1   
   123  118  128 1   
   124  119  120 ar  
   125  119  121 ar  
   126  120  122 ar  
   127  120  129 1   
   128  121  123 ar  
   129  121  130 1   
   130  122  124 ar  
   131  122  131 1   
   132  123  124 ar  
   133  123  132 1   
   134  124  133 1   
   135  134  135 1   
   136  134  140 1   
   137  135  136 1   
   138  135  138 1   
   139  135  141 1   
   140  136  137 2   
   141  136  148 1   
   142  138  139 1   
   143  138  142 1   
   144  138  143 1   
   145  139  140 1   
   146  139  144 1   
   147  139  145 1   
   148  140  146 1   
   149  140  147 1   
   150  148  149 1   
   151  148  157 1   
   152  149  150 1   
   153  149  152 1   
   154  149  158 1   
   155  150  151 2   
   156  150  163 1   
   157  152  153 1   
   158  152  159 1   
   159  152  160 1   
   160  153  154 1   
   161  153  161 1   
   162  153  162 1   
   163  154  155 1   
   164  154  156 1   
   165  163  164 1   
   166  163  168 1   
   167  164  165 1   
   168  164  166 1   
   169  164  167 1   
   170  170  171 1   
   171  170  172 1   
   172  173  174 1   
   173  173  175 1   
   174  176  177 1   
   175  176  178 1   
   176  179  180 1   
   177  179  181 1   
@<TRIPOS>SUBSTRUCTURE
     1 MOL         1 TEMP              0 ****  ****    0 ROOT
