@<TRIPOS>MOLECULE
MOL
  192   187     1     0     0
SMALL
resp


@<TRIPOS>ATOM
      1 C1          4.3690   -1.7690   -2.7830 c3        1 MOL     -0.402786
      2 C2          3.4520   -2.5550   -1.8170 c         1 MOL      0.675722
      3 O1          2.4000   -2.0910   -1.2570 o         1 MOL     -0.457844
      4 H1          4.8060   -0.9200   -2.2590 hc        1 MOL      0.112629
      5 H2          5.1650   -2.4230   -3.1410 hc        1 MOL      0.112629
      6 H3          3.7840   -1.4110   -3.6300 hc        1 MOL      0.112629
      7 N1          3.7720   -3.8260   -1.5630 n         1 MOL     -0.495874
      8 C3          3.1570   -4.7020   -0.5470 c3        1 MOL     -0.311259
      9 C4          1.6330   -4.9080   -0.8260 c         1 MOL      0.883938
     10 O2          0.8490   -5.1370    0.1370 o         1 MOL     -0.557469
     11 C5          3.5200   -4.4180    0.9350 c3        1 MOL     -0.497942
     12 C6          4.9810   -4.0260    1.1810 c         1 MOL      0.907800
     13 O3          5.4690   -2.8940    1.1150 o         1 MOL     -0.759794
     14 O4          5.7390   -4.9140    1.5700 o         1 MOL     -0.759794
     15 H4          4.5880   -4.2130   -2.0280 hn        1 MOL      0.288042
     16 H5          3.5850   -5.6580   -0.8750 h1        1 MOL      0.160109
     17 H6          3.3330   -5.3280    1.5230 hc        1 MOL      0.175550
     18 H7          2.8570   -3.6170    1.2660 hc        1 MOL      0.175550
     19 N2          1.1500   -4.7820   -2.0420 n         1 MOL     -0.724283
     20 C7         -0.3000   -4.8240   -2.4170 c3        1 MOL     -0.155964
     21 C8         -1.0200   -6.1360   -2.0650 c         1 MOL      0.635835
     22 O5         -0.5120   -7.2280   -2.3170 o         1 MOL     -0.608294
     23 C9         -0.4750   -4.5060   -3.9020 c3        1 MOL      0.055665
     24 C10         0.2380   -5.5550   -4.8430 c3        1 MOL      0.159780
     25 C11        -0.1300   -2.9640   -4.1160 c3        1 MOL     -0.201751
     26 C12         0.0540   -5.2790   -6.3140 c3        1 MOL     -0.290964
     27 H8          1.7570   -4.5410   -2.8190 hn        1 MOL      0.367030
     28 H9         -0.8250   -3.9910   -1.9430 h1        1 MOL      0.220035
     29 H10        -1.5500   -4.4850   -4.1070 hc        1 MOL      0.043239
     30 H11        -0.2410   -6.5050   -4.6220 hc        1 MOL     -0.016214
     31 H12         1.3210   -5.5550   -4.6990 hc        1 MOL     -0.016214
     32 H13        -0.8420   -2.3020   -3.6100 hc        1 MOL      0.058000
     33 H14         0.8750   -2.6710   -3.8200 hc        1 MOL      0.058000
     34 H15        -0.1830   -2.7450   -5.1820 hc        1 MOL      0.058000
     35 H16         0.3380   -4.2460   -6.5250 hc        1 MOL      0.057014
     36 H17         0.4540   -6.0670   -6.9530 hc        1 MOL      0.057014
     37 H18        -1.0120   -5.1990   -6.5100 hc        1 MOL      0.057014
     38 N3         -2.1920   -6.1400   -1.4890 n         1 MOL     -0.392380
     39 C13        -2.9400   -5.0580   -0.9090 c3        1 MOL     -0.118647
     40 C14        -3.8390   -5.5990    0.2450 c         1 MOL      0.709964
     41 O6         -4.3800   -6.7200    0.3120 o         1 MOL     -0.588175
     42 C15        -3.8070   -4.3570   -2.0240 c3        1 MOL     -0.275318
     43 C16        -4.9520   -3.4990   -1.5210 c         1 MOL      0.740735
     44 O7         -4.8170   -2.5750   -0.6680 o         1 MOL     -0.711214
     45 O8         -6.1420   -3.7370   -1.8740 o         1 MOL     -0.711214
     46 H19        -2.3640   -7.0500   -1.0790 hn        1 MOL      0.261297
     47 H20        -2.2260   -4.3770   -0.4520 h1        1 MOL      0.030967
     48 H21        -4.0470   -5.1470   -2.7290 hc        1 MOL      0.081818
     49 H22        -3.1740   -3.6760   -2.6000 hc        1 MOL      0.081818
     50 N4         -3.8970   -4.8710    1.3430 n         1 MOL     -0.366268
     51 C17        -4.5760   -5.2170    2.5890 c3        1 MOL     -0.213011
     52 C18        -5.4880   -4.1270    3.1280 c         1 MOL      0.713012
     53 O9         -6.1660   -4.3730    4.1390 o         1 MOL     -0.628552
     54 H23        -3.3950   -3.9910    1.4230 hn        1 MOL      0.308319
     55 H24        -3.7800   -5.2120    3.3230 h1        1 MOL      0.095160
     56 H25        -5.0770   -6.1900    2.5620 h1        1 MOL      0.095160
     57 N5         -5.6780   -3.0900    2.2890 n         1 MOL     -0.460427
     58 C19        -6.5840   -2.0190    2.6740 c3        1 MOL     -0.017313
     59 C20        -7.5930   -1.5210    1.6510 c         1 MOL      0.453803
     60 O10        -8.6430   -1.1020    2.0770 o         1 MOL     -0.577595
     61 C21        -5.7280   -0.9420    3.2750 c3        1 MOL     -0.350744
     62 C22        -4.4820   -0.5030    2.5320 c         1 MOL      0.717594
     63 O11        -3.4120   -1.1100    2.8490 o         1 MOL     -0.710980
     64 O12        -4.5770    0.2960    1.5700 o         1 MOL     -0.710980
     65 H26        -5.0730   -2.9380    1.4900 hn        1 MOL      0.283549
     66 H27        -7.2380   -2.3380    3.4740 h1        1 MOL      0.117234
     67 H28        -5.5560   -1.1030    4.3420 hc        1 MOL      0.094831
     68 H29        -6.3260   -0.0290    3.2560 hc        1 MOL      0.094831
     69 N6         -7.2510   -1.5200    0.3660 n         1 MOL     -0.165559
     70 C23        -8.0630   -0.8220   -0.6760 c3        1 MOL     -0.189976
     71 C24        -8.1320    0.7210   -0.5690 c         1 MOL      0.515914
     72 O13        -8.6920    1.4620   -1.3790 o         1 MOL     -0.601397
     73 H30        -6.3760   -1.9690    0.1330 hn        1 MOL      0.251937
     74 H31        -9.1010   -1.1250   -0.5740 h1        1 MOL      0.103604
     75 H32        -7.6900   -1.1380   -1.6510 h1        1 MOL      0.103604
     76 N7         -7.3370    1.2730    0.3820 n         1 MOL     -0.018975
     77 C25        -7.1260    2.6800    0.6510 c3        1 MOL      0.123738
     78 C26        -6.7470    3.6220   -0.5360 c         1 MOL      0.392838
     79 O14        -7.0360    4.8050   -0.5830 o         1 MOL     -0.546872
     80 C27        -8.2570    3.2130    1.5920 c3        1 MOL     -0.134603
     81 C28        -8.4510    2.2820    2.7880 c3        1 MOL      0.030421
     82 C29        -9.0770    2.9890    3.9850 c         1 MOL      0.597930
     83 N8        -10.4040    2.8810    4.0730 n         1 MOL     -0.821893
     84 O15        -8.4290    3.4670    4.9220 o         1 MOL     -0.563606
     85 H33        -6.9160    0.5850    0.9860 hn        1 MOL      0.031182
     86 H34        -6.2660    2.8350    1.2990 h1        1 MOL      0.088662
     87 H35        -9.1860    3.3520    1.0510 hc        1 MOL      0.027780
     88 H36        -7.8760    4.1430    2.0240 hc        1 MOL      0.027780
     89 H37        -7.5060    1.8560    3.1210 hc        1 MOL      0.003354
     90 H38        -9.0880    1.4510    2.4610 hc        1 MOL      0.003354
     91 H39       -10.9670    2.4160    3.3730 hn        1 MOL      0.357361
     92 H40       -10.8200    3.2520    4.9200 hn        1 MOL      0.357361
     93 N9         -5.9250    3.1440   -1.4640 n         1 MOL     -0.130322
     94 C30        -5.2980    3.7730   -2.6390 c3        1 MOL     -0.262863
     95 C31        -3.8300    3.4860   -2.7590 c         1 MOL      0.518261
     96 O16        -3.2000    3.9060   -3.7230 o         1 MOL     -0.556145
     97 C32        -6.0730    3.4280   -3.9580 c3        1 MOL      0.396517
     98 C33        -6.0230    1.9110   -4.3220 c3        1 MOL     -0.340687
     99 C34        -7.5130    3.8860   -3.9140 c3        1 MOL     -0.340687
    100 H41        -5.5650    2.2050   -1.3710 hn        1 MOL      0.140610
    101 H42        -5.2780    4.8470   -2.4990 h1        1 MOL      0.137061
    102 H43        -5.4800    3.9410   -4.7190 hc        1 MOL     -0.054646
    103 H44        -5.0140    1.5010   -4.2330 hc        1 MOL      0.072335
    104 H45        -6.7920    1.4330   -3.7120 hc        1 MOL      0.072335
    105 H46        -6.2180    1.8490   -5.3980 hc        1 MOL      0.072335
    106 H47        -7.9940    3.7420   -4.8820 hc        1 MOL      0.072335
    107 H48        -8.0550    3.4570   -3.0670 hc        1 MOL      0.072335
    108 H49        -7.4870    4.9750   -3.8840 hc        1 MOL      0.072335
    109 N10        -3.1800    2.8180   -1.8000 n         1 MOL     -0.270532
    110 C35        -1.8140    2.3440   -1.8240 c3        1 MOL      0.082501
    111 C36        -0.9550    3.0080   -0.7360 c         1 MOL      0.558640
    112 O17        -1.4830    3.4790    0.2850 o         1 MOL     -0.541991
    113 C37        -1.8680    0.8390   -1.5590 c3        1 MOL      0.023062
    114 C38        -0.5030    0.2380   -1.8670 c         1 MOL      0.421964
    115 N11        -0.0070   -0.6560   -0.9950 n         1 MOL     -0.656445
    116 O18         0.1580    0.6070   -2.8470 o         1 MOL     -0.548294
    117 H50        -3.7310    2.6650   -0.9660 hn        1 MOL      0.164437
    118 H51        -1.4960    2.5970   -2.8380 h1        1 MOL      0.044636
    119 H52        -2.6210    0.3320   -2.1560 hc        1 MOL      0.054131
    120 H53        -2.0980    0.5570   -0.5320 hc        1 MOL      0.054131
    121 H54        -0.6170   -0.9800   -0.2530 hn        1 MOL      0.324017
    122 H55         0.7760   -1.2640   -1.1440 hn        1 MOL      0.324017
    123 N12         0.3850    3.0460   -0.8860 n         1 MOL     -0.573406
    124 C39         1.3930    3.4050    0.2010 c3        1 MOL      0.200802
    125 C40         2.7700    3.8060   -0.3820 c         1 MOL      0.539880
    126 O19         3.2530    3.4000   -1.4420 o         1 MOL     -0.560081
    127 C41         1.5360    2.1620    1.0710 c3        1 MOL     -0.115049
    128 C42         1.9000    2.3950    2.4860 ca        1 MOL      0.046659
    129 C43         3.2600    2.4890    2.8590 ca        1 MOL     -0.207826
    130 C44         0.9160    2.4720    3.4770 ca        1 MOL     -0.207826
    131 C45         3.5730    2.6010    4.1790 ca        1 MOL     -0.192023
    132 C46         1.2610    2.5540    4.8290 ca        1 MOL     -0.192023
    133 C47         2.6020    2.7010    5.2330 ca        1 MOL      0.249335
    134 O20         2.9800    2.8610    6.5080 oh        1 MOL     -0.468044
    135 H56         0.8210    2.4980   -1.6180 hn        1 MOL      0.298439
    136 H57         0.9560    4.2510    0.7440 h1        1 MOL      0.062504
    137 H58         2.2590    1.4740    0.6380 hc        1 MOL      0.097131
    138 H59         0.6520    1.5280    1.1450 hc        1 MOL      0.097131
    139 H60         4.0180    2.4910    2.0930 ha        1 MOL      0.170426
    140 H61        -0.1230    2.3770    3.1750 ha        1 MOL      0.170426
    141 H62         4.6110    2.6940    4.4570 ha        1 MOL      0.128617
    142 H63         0.5320    2.6640    5.6170 ha        1 MOL      0.128617
    143 H64         3.9410    2.7680    6.5200 ho        1 MOL      0.343073
    144 N13         3.3790    4.7180    0.3350 n         1 MOL     -0.658935
    145 C48         4.6910    5.2520   -0.0030 c3        1 MOL      0.452106
    146 C49         5.7420    4.7300    1.0290 c         1 MOL      0.332420
    147 O21         5.8800    5.2160    2.1050 o         1 MOL     -0.540723
    148 C50         4.7420    6.7810   -0.0640 c3        1 MOL     -0.032681
    149 C51         3.6560    7.2620   -1.0110 c3        1 MOL     -0.155727
    150 C52         3.7710    8.7180   -1.3010 c         1 MOL      0.736202
    151 O22         3.3800    9.5270   -0.4300 o         1 MOL     -0.708268
    152 O23         4.2780    9.0680   -2.3630 o         1 MOL     -0.708268
    153 H65         2.8990    5.0890    1.1560 hn        1 MOL      0.323495
    154 H66         5.0920    4.9530   -0.9650 h1        1 MOL      0.035780
    155 H67         5.7030    7.0950   -0.4640 hc        1 MOL      0.024714
    156 H68         4.6530    7.2300    0.9260 hc        1 MOL      0.024714
    157 H69         2.6500    7.1680   -0.5990 hc        1 MOL      0.018516
    158 H70         3.5970    6.7840   -1.9960 hc        1 MOL      0.018516
    159 N14         6.5720    3.7640    0.6090 n         1 MOL     -0.318011
    160 C53         6.5860    2.9900   -0.6140 c3        1 MOL     -0.458242
    161 C54         7.0520    3.8320   -1.7880 c         1 MOL      0.641620
    162 O24         7.8770    4.7560   -1.6730 o         1 MOL     -0.542901
    163 C55         7.4570    1.7390   -0.4570 c3        1 MOL     -0.027911
    164 C56         6.8700    0.7410    0.5430 c3        1 MOL      0.448084
    165 C57         7.6340   -0.5890    0.6810 c         1 MOL      0.400024
    166 O25         7.9230   -1.0810    1.8000 o         1 MOL     -0.708585
    167 O26         7.9120   -1.2440   -0.3320 o         1 MOL     -0.708585
    168 H71         7.2820    3.4390    1.2480 hn        1 MOL      0.306902
    169 H72         5.5830    2.5900   -0.7400 h1        1 MOL      0.160867
    170 H73         8.4870    2.0230   -0.2430 hc        1 MOL      0.012635
    171 H74         7.4930    1.1400   -1.3690 hc        1 MOL      0.012635
    172 H75         5.8210    0.5580    0.2890 hc        1 MOL     -0.089111
    173 H76         6.8720    1.2160    1.5230 hc        1 MOL     -0.089111
    174 N15         6.4060    3.7750   -2.9620 n         1 MOL     -0.394188
    175 C58         6.6440    4.6530   -4.1450 c3        1 MOL     -0.071068
    176 H77         7.7130    4.7000   -4.3520 h1        1 MOL      0.068486
    177 H78         6.1240    4.2450   -5.0110 h1        1 MOL      0.068486
    178 H79         6.2710    5.6550   -3.9350 h1        1 MOL      0.068486
    179 H80         5.6290    3.1220   -2.9800 hn        1 MOL      0.293419
    180 Ca1         7.9950   -3.6040    1.3420 Ca        1 MOL      1.712221
    181 O27        10.5390   -3.4040    2.5670 oh        1 MOL     -0.837933
    182 H81        10.8070   -3.1280    3.4370 ho        1 MOL      0.401948
    183 H82        11.3040   -3.2350    2.0110 ho        1 MOL      0.401948
    184 O28        10.1070   -4.3290   -0.3000 oh        1 MOL     -0.837933
    185 H83        10.8530   -4.8330    0.0210 ho        1 MOL      0.401948
    186 H84        10.4310   -3.9000   -1.0930 ho        1 MOL      0.401948
    187 O29         8.4020   -6.0190    2.4820 oh        1 MOL     -0.837933
    188 H85         8.2670   -5.9570    3.4180 ho        1 MOL      0.401948
    189 H86         8.3380   -6.9520    2.2900 ho        1 MOL      0.401948
    190 O30         7.9280   -2.9400    4.1160 oh        1 MOL     -0.837933
    191 H87         8.7250   -2.7290    4.5990 ho        1 MOL      0.401948
    192 H88         7.2220   -2.7420    4.7320 ho        1 MOL      0.401948
@<TRIPOS>BOND
     1    1    2 1   
     2    1    4 1   
     3    1    5 1   
     4    1    6 1   
     5    2    3 2   
     6    2    7 1   
     7    7    8 1   
     8    7   15 1   
     9    8    9 1   
    10    8   11 1   
    11    8   16 1   
    12    9   10 2   
    13    9   19 1   
    14   11   12 1   
    15   11   17 1   
    16   11   18 1   
    17   12   13 1   
    18   12   14 1   
    19   19   20 1   
    20   19   27 1   
    21   20   21 1   
    22   20   23 1   
    23   20   28 1   
    24   21   22 2   
    25   21   38 1   
    26   23   24 1   
    27   23   25 1   
    28   23   29 1   
    29   24   26 1   
    30   24   30 1   
    31   24   31 1   
    32   25   32 1   
    33   25   33 1   
    34   25   34 1   
    35   26   35 1   
    36   26   36 1   
    37   26   37 1   
    38   38   39 1   
    39   38   46 1   
    40   39   40 1   
    41   39   42 1   
    42   39   47 1   
    43   40   41 2   
    44   40   50 1   
    45   42   43 1   
    46   42   48 1   
    47   42   49 1   
    48   43   44 1   
    49   43   45 1   
    50   50   51 1   
    51   50   54 1   
    52   51   52 1   
    53   51   55 1   
    54   51   56 1   
    55   52   53 2   
    56   52   57 1   
    57   57   58 1   
    58   57   65 1   
    59   58   59 1   
    60   58   61 1   
    61   58   66 1   
    62   59   60 2   
    63   59   69 1   
    64   61   62 1   
    65   61   67 1   
    66   61   68 1   
    67   62   63 1   
    68   62   64 1   
    69   69   70 1   
    70   69   73 1   
    71   70   71 1   
    72   70   74 1   
    73   70   75 1   
    74   71   72 2   
    75   71   76 1   
    76   76   77 1   
    77   76   85 1   
    78   77   78 1   
    79   77   80 1   
    80   77   86 1   
    81   78   79 2   
    82   78   93 1   
    83   80   81 1   
    84   80   87 1   
    85   80   88 1   
    86   81   82 1   
    87   81   89 1   
    88   81   90 1   
    89   82   83 1   
    90   82   84 2   
    91   83   91 1   
    92   83   92 1   
    93   93   94 1   
    94   93  100 1   
    95   94   95 1   
    96   94   97 1   
    97   94  101 1   
    98   95   96 2   
    99   95  109 1   
   100   97   98 1   
   101   97   99 1   
   102   97  102 1   
   103   98  103 1   
   104   98  104 1   
   105   98  105 1   
   106   99  106 1   
   107   99  107 1   
   108   99  108 1   
   109  109  110 1   
   110  109  117 1   
   111  110  111 1   
   112  110  113 1   
   113  110  118 1   
   114  111  112 2   
   115  111  123 1   
   116  113  114 1   
   117  113  119 1   
   118  113  120 1   
   119  114  115 1   
   120  114  116 2   
   121  115  121 1   
   122  115  122 1   
   123  123  124 1   
   124  123  135 1   
   125  124  125 1   
   126  124  127 1   
   127  124  136 1   
   128  125  126 2   
   129  125  144 1   
   130  127  128 1   
   131  127  137 1   
   132  127  138 1   
   133  128  129 ar  
   134  128  130 ar  
   135  129  131 ar  
   136  129  139 1   
   137  130  132 ar  
   138  130  140 1   
   139  131  133 ar  
   140  131  141 1   
   141  132  133 ar  
   142  132  142 1   
   143  133  134 1   
   144  134  143 1   
   145  144  145 1   
   146  144  153 1   
   147  145  146 1   
   148  145  148 1   
   149  145  154 1   
   150  146  147 2   
   151  146  159 1   
   152  148  149 1   
   153  148  155 1   
   154  148  156 1   
   155  149  150 1   
   156  149  157 1   
   157  149  158 1   
   158  150  151 1   
   159  150  152 1   
   160  159  160 1   
   161  159  168 1   
   162  160  161 1   
   163  160  163 1   
   164  160  169 1   
   165  161  162 2   
   166  161  174 1   
   167  163  164 1   
   168  163  170 1   
   169  163  171 1   
   170  164  165 1   
   171  164  172 1   
   172  164  173 1   
   173  165  166 1   
   174  165  167 1   
   175  174  175 1   
   176  174  179 1   
   177  175  176 1   
   178  175  177 1   
   179  175  178 1   
   180  181  182 1   
   181  181  183 1   
   182  184  185 1   
   183  184  186 1   
   184  187  188 1   
   185  187  189 1   
   186  190  191 1   
   187  190  192 1   
@<TRIPOS>SUBSTRUCTURE
     1 MOL         1 TEMP              0 ****  ****    0 ROOT
