@<TRIPOS>MOLECULE
MOL
  198   191     1     0     0
SMALL
resp


@<TRIPOS>ATOM
      1 C1          2.3370    2.0230   -4.1580 c3        1 MOL     -0.554311
      2 C2          3.4700    1.0890   -4.1970 c         1 MOL      0.770492
      3 O1          3.4620   -0.0330   -4.6430 o         1 MOL     -0.587452
      4 H1          2.4640    2.7130   -3.3230 hc        1 MOL      0.147321
      5 H2          2.2960    2.5850   -5.0910 hc        1 MOL      0.147321
      6 H3          1.4090    1.4650   -4.0290 hc        1 MOL      0.147321
      7 N1          4.5670    1.6450   -3.6880 n         1 MOL     -0.488940
      8 C3          5.9420    1.0610   -3.4050 c3        1 MOL      0.049398
      9 C4          6.0970    0.1560   -2.2020 c         1 MOL      0.589890
     10 O2          5.0320   -0.1310   -1.6230 o         1 MOL     -0.454993
     11 C5          6.9910    2.2170   -3.5200 c3        1 MOL     -0.249744
     12 C6          6.6720    3.2420   -2.4390 c         1 MOL      0.775020
     13 O3          6.8190    2.9960   -1.2350 o         1 MOL     -0.753163
     14 O4          6.4510    4.4460   -2.6750 o         1 MOL     -0.753163
     15 H4          4.4620    2.6110   -3.3870 hn        1 MOL      0.252630
     16 H5          6.2090    0.4230   -4.2500 h1        1 MOL      0.056038
     17 H6          7.0230    2.7360   -4.4690 hc        1 MOL      0.063896
     18 H7          7.9510    1.7350   -3.3270 hc        1 MOL      0.063896
     19 N2          7.3480   -0.2630   -1.8100 n         1 MOL     -0.632646
     20 C7          7.6130   -1.2770   -0.7570 c3        1 MOL     -0.011892
     21 C8          7.3630   -0.7440    0.6720 c         1 MOL      0.567699
     22 O5          7.8060   -1.3910    1.6070 o         1 MOL     -0.569027
     23 C9          8.9860   -2.0070   -0.8920 c3        1 MOL      0.182396
     24 C10        10.2250   -1.1780   -0.6770 c3        1 MOL     -0.053447
     25 C11        11.3770   -1.7290   -1.4890 c3        1 MOL     -0.161893
     26 C12        12.7210   -1.1600   -0.9870 c3        1 MOL      0.085423
     27 N3         13.9080   -1.8730   -1.4920 n4        1 MOL     -0.184130
     28 H8          8.0650   -0.0100   -2.4760 hn        1 MOL      0.313423
     29 H9          6.8220   -2.0250   -0.8200 h1        1 MOL      0.092674
     30 H10         9.0160   -2.5070   -1.8620 hc        1 MOL     -0.017256
     31 H11         8.8720   -2.8850   -0.2590 hc        1 MOL     -0.017256
     32 H12        10.4110   -1.2140    0.3900 hc        1 MOL      0.070405
     33 H13         9.9980   -0.1650   -0.9990 hc        1 MOL      0.070405
     34 H14        11.2680   -1.4950   -2.5490 hc        1 MOL      0.046073
     35 H15        11.2930   -2.8000   -1.3560 hc        1 MOL      0.046073
     36 H16        12.7570   -1.3130    0.0890 hx        1 MOL      0.076239
     37 H17        12.7720   -0.0830   -1.1060 hx        1 MOL      0.076239
     38 H18        14.1130   -1.6960   -2.4730 hn        1 MOL      0.231498
     39 H19        14.7480   -1.7930   -0.9360 hn        1 MOL      0.231498
     40 H20        13.6420   -2.8450   -1.5680 hn        1 MOL      0.231498
     41 N4          6.7620    0.4250    0.8990 n         1 MOL     -0.387129
     42 C13         6.2410    0.7670    2.2440 c3        1 MOL     -0.246258
     43 C14         5.0490    1.7630    2.0340 c         1 MOL      0.873436
     44 O6          5.0960    2.5630    1.1460 o         1 MOL     -0.606157
     45 C15         7.3830    1.3970    3.1100 c3        1 MOL      0.051073
     46 C16         8.3550    2.2460    2.2680 c         1 MOL      0.599478
     47 O7          9.5540    2.1350    2.4040 o         1 MOL     -0.679201
     48 O8          7.9700    3.3180    1.7000 o         1 MOL     -0.679201
     49 H21         6.3900    0.9190    0.1040 hn        1 MOL      0.268071
     50 H22         5.8070   -0.1340    2.6830 h1        1 MOL      0.165985
     51 H23         7.9110    0.6390    3.6800 hc        1 MOL      0.008157
     52 H24         6.8720    1.9750    3.8700 hc        1 MOL      0.008157
     53 N5          3.9920    1.8050    2.8570 n         1 MOL     -0.817548
     54 C17         3.6390    0.9130    3.9370 c3        1 MOL      0.265801
     55 C18         3.2550   -0.5200    3.4960 c         1 MOL      0.576183
     56 O9          3.0950   -0.8090    2.3040 o         1 MOL     -0.552046
     57 H25         3.2540    2.4650    2.6610 hn        1 MOL      0.369192
     58 H26         2.8850    1.2970    4.6220 h1        1 MOL      0.002263
     59 H27         4.4980    0.7220    4.5840 h1        1 MOL      0.002263
     60 N6          3.1000   -1.4330    4.3840 n         1 MOL     -0.511721
     61 C19         3.0940   -2.8780    4.1060 c3        1 MOL      0.120769
     62 C20         1.7140   -3.3690    3.6150 c         1 MOL      0.528735
     63 O10         0.7390   -2.7640    4.0330 o         1 MOL     -0.465176
     64 C21         3.5200   -3.6570    5.4230 c3        1 MOL     -0.142738
     65 C22         2.6510   -3.5040    6.6390 c         1 MOL      0.660176
     66 O11         2.7730   -2.4650    7.4150 o         1 MOL     -0.636557
     67 O12         1.7410   -4.3060    6.8160 o         1 MOL     -0.636557
     68 H28         3.0720   -1.1990    5.3620 hn        1 MOL      0.241762
     69 H29         3.7910   -3.2450    3.3530 h1        1 MOL      0.026979
     70 H30         4.5420   -3.4230    5.7290 hc        1 MOL      0.019645
     71 H31         3.5890   -4.7060    5.1250 hc        1 MOL      0.019645
     72 N7          1.5240   -4.3820    2.7510 n         1 MOL     -0.425639
     73 C23         0.2180   -4.8270    2.2690 c3        1 MOL      0.016645
     74 C24         0.1130   -5.0250    0.7220 c         1 MOL      0.349179
     75 O13        -0.9600   -5.3840    0.1760 o         1 MOL     -0.561816
     76 H32         2.3130   -4.9840    2.5340 hn        1 MOL      0.258011
     77 H33        -0.6290   -4.1820    2.4800 h1        1 MOL      0.083079
     78 H34         0.0610   -5.7980    2.7410 h1        1 MOL      0.083079
     79 N8          1.1750   -4.7780    0.0070 n         1 MOL     -0.228532
     80 C25         1.1860   -4.7120   -1.5120 c3        1 MOL      0.091682
     81 C26         0.8340   -3.3450   -1.9980 c         1 MOL      0.292766
     82 O14         1.7130   -2.4660   -1.9070 o         1 MOL     -0.495941
     83 C27         2.5160   -5.2090   -2.1490 c3        1 MOL      0.299847
     84 C28         3.0560   -6.4700   -1.5300 c3        1 MOL     -0.276699
     85 O15         2.3320   -5.3760   -3.5640 oh        1 MOL     -0.609546
     86 H35         1.9140   -4.2410    0.4420 hn        1 MOL      0.193934
     87 H36         0.4410   -5.4160   -1.9030 h1        1 MOL      0.080795
     88 H37         3.2690   -4.4260   -2.0310 h1        1 MOL      0.018428
     89 H38         3.2000   -5.1920   -3.9210 ho        1 MOL      0.393521
     90 H39         3.0430   -6.4100   -0.4490 hc        1 MOL      0.061623
     91 H40         2.4710   -7.3310   -1.8560 hc        1 MOL      0.061623
     92 H41         4.1010   -6.6250   -1.7970 hc        1 MOL      0.061623
     93 N9         -0.3310   -3.2160   -2.5180 n         1 MOL     -0.066665
     94 C29        -0.7850   -1.9500   -3.2020 c3        1 MOL     -0.031700
     95 C30        -1.9250   -1.3010   -2.3750 c         1 MOL      0.389653
     96 O16        -2.0500   -0.0580   -2.2010 o         1 MOL     -0.537665
     97 C31        -1.2930   -2.2370   -4.6260 c3        1 MOL      0.153766
     98 C32        -0.2630   -2.8070   -5.5780 c3        1 MOL      0.200342
     99 C33        -1.9320   -0.9810   -5.2880 c3        1 MOL     -0.322549
    100 C34         1.1130   -2.1440   -5.8190 c3        1 MOL     -0.276528
    101 H42        -0.7890   -4.1120   -2.6470 hn        1 MOL      0.179152
    102 H43         0.0950   -1.3170   -3.3010 h1        1 MOL      0.121863
    103 H44        -2.0870   -2.9760   -4.5650 hc        1 MOL     -0.035165
    104 H45        -0.6920   -3.0210   -6.5580 hc        1 MOL     -0.068469
    105 H46        -0.0220   -3.7920   -5.1910 hc        1 MOL     -0.068469
    106 H47        -1.3970   -0.0970   -4.9660 hc        1 MOL      0.086421
    107 H48        -1.9770   -1.1330   -6.3640 hc        1 MOL      0.086421
    108 H49        -2.9970   -1.0890   -5.0590 hc        1 MOL      0.086421
    109 H50         1.5200   -2.7590   -6.6340 hc        1 MOL      0.070005
    110 H51         0.9190   -1.1050   -6.1060 hc        1 MOL      0.070005
    111 H52         1.6680   -2.1840   -4.8820 hc        1 MOL      0.070005
    112 N10        -2.7120   -2.0540   -1.6670 n         1 MOL     -0.332607
    113 C35        -3.7930   -1.6810   -0.7320 c3        1 MOL      0.113631
    114 C36        -5.1600   -2.3210   -1.0580 c         1 MOL      0.560040
    115 O17        -5.1690   -3.2530   -1.8350 o         1 MOL     -0.528975
    116 C37        -3.5240   -2.0740    0.7330 c3        1 MOL      0.371658
    117 C38        -2.0450   -1.9380    1.0050 c3        1 MOL     -0.444786
    118 O18        -4.1840   -1.2250    1.6680 oh        1 MOL     -0.633716
    119 H53        -2.5630   -3.0490   -1.7320 hn        1 MOL      0.196536
    120 H54        -3.9850   -0.6210   -0.8670 h1        1 MOL      0.085987
    121 H55        -3.8590   -3.1110    0.8530 h1        1 MOL     -0.029123
    122 H56        -4.0900   -1.6850    2.5080 ho        1 MOL      0.405347
    123 H57        -1.7660   -0.9710    0.5890 hc        1 MOL      0.138155
    124 H58        -1.8510   -2.0680    2.0680 hc        1 MOL      0.138155
    125 H59        -1.5560   -2.7180    0.4180 hc        1 MOL      0.138155
    126 N11        -6.3140   -1.9590   -0.4380 n         1 MOL     -0.615807
    127 C39        -7.5560   -2.7120   -0.6700 c3        1 MOL      0.117517
    128 C40        -8.8090   -1.7630   -0.7140 c         1 MOL      0.701649
    129 O19        -9.5700   -1.8730   -1.6290 o         1 MOL     -0.564598
    130 C41        -7.7390   -3.7900    0.3960 c3        1 MOL      0.297609
    131 C42        -8.5900   -4.9280   -0.1210 c3        1 MOL     -0.382649
    132 O20        -8.4700   -3.4340    1.5660 oh        1 MOL     -0.664999
    133 H60        -6.3750   -1.1840    0.2070 hn        1 MOL      0.270681
    134 H61        -7.5460   -3.2540   -1.6200 h1        1 MOL      0.069139
    135 H62        -6.7210   -4.0990    0.6680 h1        1 MOL      0.042932
    136 H63        -8.7570   -4.2590    1.9730 ho        1 MOL      0.408861
    137 H64        -8.6450   -5.6780    0.6570 hc        1 MOL      0.095876
    138 H65        -9.5920   -4.6340   -0.4410 hc        1 MOL      0.095876
    139 H66        -8.1070   -5.4630   -0.9350 hc        1 MOL      0.095876
    140 N12        -8.8890   -0.8230    0.2390 n         1 MOL     -0.675462
    141 C43       -10.0190    0.1140    0.5140 c3        1 MOL      0.058027
    142 C44        -9.5250    1.4980    0.9030 c         1 MOL      0.406720
    143 O21        -9.0190    1.6210    2.0390 o         1 MOL     -0.516453
    144 C45       -10.9350   -0.6160    1.4590 c3        1 MOL     -0.158710
    145 C46       -12.2600    0.0920    1.7590 c3        1 MOL     -0.114131
    146 C47       -13.0160    0.3530    0.4660 c3        1 MOL      0.006380
    147 C48       -14.4000    0.9640    0.7840 c3        1 MOL      0.084915
    148 N13       -15.6060    0.0540    0.9580 n4        1 MOL     -0.323643
    149 H67        -8.1210   -0.6630    0.8780 hn        1 MOL      0.408745
    150 H68       -10.5660    0.2200   -0.4200 h1        1 MOL      0.043598
    151 H69       -10.3640   -0.8800    2.3530 hc        1 MOL      0.101079
    152 H70       -11.0550   -1.5780    0.9700 hc        1 MOL      0.101079
    153 H71       -12.0650    1.0200    2.2890 hc        1 MOL      0.057731
    154 H72       -12.9220   -0.5390    2.3430 hc        1 MOL      0.057731
    155 H73       -13.1710   -0.5140   -0.1890 hc        1 MOL      0.028564
    156 H74       -12.5530    1.1220   -0.1480 hc        1 MOL      0.028564
    157 H75       -14.7140    1.5630   -0.0650 hx        1 MOL      0.073249
    158 H76       -14.3680    1.6700    1.6160 hx        1 MOL      0.073249
    159 H77       -16.4510    0.5860    1.1060 hn        1 MOL      0.281348
    160 H78       -15.7410   -0.5850    0.1920 hn        1 MOL      0.281348
    161 H79       -15.5680   -0.6170    1.7060 hn        1 MOL      0.281348
    162 N14        -9.5010    2.4480    0.0230 n         1 MOL     -0.303926
    163 C49        -8.9030    3.7650    0.2990 c3        1 MOL      0.277826
    164 C50        -7.4480    3.8990   -0.1440 c         1 MOL      0.325296
    165 O22        -6.6580    4.4440    0.6390 o         1 MOL     -0.516724
    166 C51        -9.8730    4.8350   -0.1930 c3        1 MOL      0.079218
    167 C52       -11.2750    4.6990    0.4750 c3        1 MOL     -0.307477
    168 C53       -12.1110    5.9310    0.0720 c         1 MOL      0.741894
    169 O23       -12.2940    6.8960    0.7960 o         1 MOL     -0.690241
    170 O24       -12.7150    5.7790   -1.0100 o         1 MOL     -0.690241
    171 H80        -9.9140    2.2440   -0.8760 hn        1 MOL      0.298207
    172 H81        -8.8670    3.9380    1.3750 h1        1 MOL      0.047009
    173 H82       -10.1090    4.7710   -1.2560 hc        1 MOL     -0.011548
    174 H83        -9.5140    5.8430    0.0130 hc        1 MOL     -0.011548
    175 H84       -11.1110    4.7270    1.5480 hc        1 MOL      0.037955
    176 H85       -11.6730    3.7420    0.1400 hc        1 MOL      0.037955
    177 N15        -6.9890    3.5180   -1.3590 n         1 MOL     -0.375307
    178 C54        -7.7150    3.0750   -2.5600 c3        1 MOL     -0.023305
    179 H86        -8.7480    2.8450   -2.2960 h1        1 MOL      0.042743
    180 H87        -7.7000    3.8680   -3.3080 h1        1 MOL      0.042743
    181 H88        -7.2380    2.1820   -2.9660 h1        1 MOL      0.042743
    182 H89        -5.9840    3.6280   -1.3880 hn        1 MOL      0.309694
    183 Ca1         6.3010    4.9440    0.5080 Ca        1 MOL      1.737704
    184 O25         5.5920    7.2080   -0.6060 oh        1 MOL     -0.822846
    185 H90         5.5330    8.1230   -0.3260 ho        1 MOL      0.409443
    186 H91         5.5780    7.2480   -1.5620 ho        1 MOL      0.409443
    187 O26         6.5700    7.2070    2.1840 oh        1 MOL     -0.822846
    188 H92         5.9000    7.8960    2.0970 ho        1 MOL      0.409443
    189 H93         6.9710    7.3810    3.0400 ho        1 MOL      0.409443
    190 O27         5.3800    4.7200    3.0800 oh        1 MOL     -0.822846
    191 H94         4.4290    4.6940    3.1760 ho        1 MOL      0.409443
    192 H95         5.6820    5.2870    3.7830 ho        1 MOL      0.409443
    193 O28         8.5990    6.1900   -0.2020 oh        1 MOL     -0.822846
    194 H96         9.0260    5.7890   -0.9650 ho        1 MOL      0.409443
    195 H97         8.9710    7.0750   -0.1540 ho        1 MOL      0.409443
    196 O29         3.5710    5.2760    0.2880 oh        1 MOL     -0.822846
    197 H98         3.6340    6.2190    0.4460 ho        1 MOL      0.409443
    198 H99         2.6460    5.1350    0.0710 ho        1 MOL      0.409443
@<TRIPOS>BOND
     1    1    2 1   
     2    1    4 1   
     3    1    5 1   
     4    1    6 1   
     5    2    3 2   
     6    2    7 1   
     7    7    8 1   
     8    7   15 1   
     9    8    9 1   
    10    8   11 1   
    11    8   16 1   
    12    9   10 2   
    13    9   19 1   
    14   11   12 1   
    15   11   17 1   
    16   11   18 1   
    17   12   13 1   
    18   12   14 1   
    19   19   20 1   
    20   19   28 1   
    21   20   21 1   
    22   20   23 1   
    23   20   29 1   
    24   21   22 2   
    25   21   41 1   
    26   23   24 1   
    27   23   30 1   
    28   23   31 1   
    29   24   25 1   
    30   24   32 1   
    31   24   33 1   
    32   25   26 1   
    33   25   34 1   
    34   25   35 1   
    35   26   27 1   
    36   26   36 1   
    37   26   37 1   
    38   27   38 1   
    39   27   39 1   
    40   27   40 1   
    41   41   42 1   
    42   41   49 1   
    43   42   43 1   
    44   42   45 1   
    45   42   50 1   
    46   43   44 2   
    47   43   53 1   
    48   45   46 1   
    49   45   51 1   
    50   45   52 1   
    51   46   47 1   
    52   46   48 1   
    53   53   54 1   
    54   53   57 1   
    55   54   55 1   
    56   54   58 1   
    57   54   59 1   
    58   55   56 2   
    59   55   60 1   
    60   60   61 1   
    61   60   68 1   
    62   61   62 1   
    63   61   64 1   
    64   61   69 1   
    65   62   63 2   
    66   62   72 1   
    67   64   65 1   
    68   64   70 1   
    69   64   71 1   
    70   65   66 1   
    71   65   67 1   
    72   72   73 1   
    73   72   76 1   
    74   73   74 1   
    75   73   77 1   
    76   73   78 1   
    77   74   75 2   
    78   74   79 1   
    79   79   80 1   
    80   79   86 1   
    81   80   81 1   
    82   80   83 1   
    83   80   87 1   
    84   81   82 2   
    85   81   93 1   
    86   83   84 1   
    87   83   85 1   
    88   83   88 1   
    89   84   90 1   
    90   84   91 1   
    91   84   92 1   
    92   85   89 1   
    93   93   94 1   
    94   93  101 1   
    95   94   95 1   
    96   94   97 1   
    97   94  102 1   
    98   95   96 2   
    99   95  112 1   
   100   97   98 1   
   101   97   99 1   
   102   97  103 1   
   103   98  100 1   
   104   98  104 1   
   105   98  105 1   
   106   99  106 1   
   107   99  107 1   
   108   99  108 1   
   109  100  109 1   
   110  100  110 1   
   111  100  111 1   
   112  112  113 1   
   113  112  119 1   
   114  113  114 1   
   115  113  116 1   
   116  113  120 1   
   117  114  115 2   
   118  114  126 1   
   119  116  117 1   
   120  116  118 1   
   121  116  121 1   
   122  117  123 1   
   123  117  124 1   
   124  117  125 1   
   125  118  122 1   
   126  126  127 1   
   127  126  133 1   
   128  127  128 1   
   129  127  130 1   
   130  127  134 1   
   131  128  129 2   
   132  128  140 1   
   133  130  131 1   
   134  130  132 1   
   135  130  135 1   
   136  131  137 1   
   137  131  138 1   
   138  131  139 1   
   139  132  136 1   
   140  140  141 1   
   141  140  149 1   
   142  141  142 1   
   143  141  144 1   
   144  141  150 1   
   145  142  143 2   
   146  142  162 1   
   147  144  145 1   
   148  144  151 1   
   149  144  152 1   
   150  145  146 1   
   151  145  153 1   
   152  145  154 1   
   153  146  147 1   
   154  146  155 1   
   155  146  156 1   
   156  147  148 1   
   157  147  157 1   
   158  147  158 1   
   159  148  159 1   
   160  148  160 1   
   161  148  161 1   
   162  162  163 1   
   163  162  171 1   
   164  163  164 1   
   165  163  166 1   
   166  163  172 1   
   167  164  165 2   
   168  164  177 1   
   169  166  167 1   
   170  166  173 1   
   171  166  174 1   
   172  167  168 1   
   173  167  175 1   
   174  167  176 1   
   175  168  169 1   
   176  168  170 1   
   177  177  178 1   
   178  177  182 1   
   179  178  179 1   
   180  178  180 1   
   181  178  181 1   
   182  184  185 1   
   183  184  186 1   
   184  187  188 1   
   185  187  189 1   
   186  190  191 1   
   187  190  192 1   
   188  193  194 1   
   189  193  195 1   
   190  196  197 1   
   191  196  198 1   
@<TRIPOS>SUBSTRUCTURE
     1 MOL         1 TEMP              0 ****  ****    0 ROOT
