@<TRIPOS>MOLECULE
MOL
  182   178     1     0     0
SMALL
resp


@<TRIPOS>ATOM
      1 C1          1.1380   -4.0390    5.9640 c3        1 MOL     -0.301614
      2 C2          1.2430   -3.8770    4.4520 c         1 MOL      0.792732
      3 O1          0.3080   -4.2350    3.7200 o         1 MOL     -0.621872
      4 H1          1.2720   -5.0880    6.2260 hc        1 MOL      0.077167
      5 H2          1.9100   -3.4420    6.4480 hc        1 MOL      0.077167
      6 H3          0.1560   -3.7040    6.2980 hc        1 MOL      0.077167
      7 N1          2.3620   -3.3240    4.0290 n         1 MOL     -0.584327
      8 C3          2.7480   -2.9230    2.6150 c3        1 MOL     -0.185318
      9 C4          3.1830   -4.1380    1.7310 c         1 MOL      0.909099
     10 O2          3.8560   -5.0670    2.2790 o         1 MOL     -0.598267
     11 C5          3.8380   -1.8700    2.7180 c3        1 MOL      0.003700
     12 C6          3.9840   -0.9570    1.4860 c         1 MOL      0.562199
     13 O3          4.0790    0.2660    1.6190 o         1 MOL     -0.655183
     14 O4          3.8220   -1.4210    0.3310 o         1 MOL     -0.655183
     15 H4          2.9400   -2.9900    4.7910 hn        1 MOL      0.349470
     16 H5          1.8980   -2.4500    2.1110 h1        1 MOL     -0.053750
     17 H6          4.7510   -2.4650    2.8580 hc        1 MOL      0.029101
     18 H7          3.6430   -1.2370    3.5790 hc        1 MOL      0.029101
     19 N2          2.7880   -4.1500    0.4680 n         1 MOL     -0.707871
     20 C7          3.1540   -5.1380   -0.5220 c3        1 MOL      0.064024
     21 C8          4.1860   -4.7290   -1.4930 c         1 MOL      0.451769
     22 O5          4.7040   -5.5050   -2.3200 o         1 MOL     -0.567113
     23 C9          1.9150   -5.6600   -1.2040 c3        1 MOL      0.307190
     24 C10         2.0660   -7.1160   -1.6670 c3        1 MOL     -0.126430
     25 C11         0.6500   -7.8350   -1.7190 c3        1 MOL     -0.016164
     26 C12        -0.2370   -7.1070   -2.7720 c3        1 MOL      0.129023
     27 N3         -1.6040   -7.5700   -2.8990 n4        1 MOL     -0.203400
     28 H8          2.4550   -3.2570    0.1010 hn        1 MOL      0.359718
     29 H9          3.6600   -5.9510   -0.0120 h1        1 MOL      0.085017
     30 H10         1.6280   -4.9700   -2.0010 hc        1 MOL     -0.071723
     31 H11         1.0840   -5.6420   -0.4900 hc        1 MOL     -0.071723
     32 H12         2.5450   -7.6210   -0.8250 hc        1 MOL      0.049464
     33 H13         2.6720   -7.2000   -2.5700 hc        1 MOL      0.049464
     34 H14         0.1000   -7.7260   -0.7880 hc        1 MOL      0.030369
     35 H15         0.7340   -8.8860   -2.0010 hc        1 MOL      0.030369
     36 H16         0.2360   -7.3530   -3.7290 hx        1 MOL      0.024413
     37 H17        -0.2330   -6.0280   -2.6300 hx        1 MOL      0.024413
     38 H18        -1.6480   -8.5810   -3.0000 hn        1 MOL      0.257724
     39 H19        -2.1910   -7.4970   -2.0850 hn        1 MOL      0.257724
     40 H20        -2.0120   -7.1690   -3.7260 hn        1 MOL      0.257724
     41 N4          4.6650   -3.4660   -1.4880 n         1 MOL     -0.209271
     42 C13         5.7440   -2.9350   -2.2990 c3        1 MOL      0.048096
     43 C14         6.7930   -2.2120   -1.4730 c         1 MOL      0.380872
     44 O6          7.8220   -1.7590   -1.9520 o         1 MOL     -0.522781
     45 C15         5.1560   -2.1010   -3.4150 c3        1 MOL     -0.381013
     46 C16         4.2380   -0.9840   -2.8300 c         1 MOL      0.912263
     47 O7          3.0180   -0.9050   -3.0720 o         1 MOL     -0.816239
     48 O8          4.7920   -0.1750   -2.0020 o         1 MOL     -0.816239
     49 H21         4.1740   -2.8290   -0.8670 hn        1 MOL      0.098309
     50 H22         6.2760   -3.7940   -2.7140 h1        1 MOL      0.134222
     51 H23         4.6710   -2.7470   -4.1420 hc        1 MOL      0.116589
     52 H24         5.9240   -1.6150   -4.0130 hc        1 MOL      0.116589
     53 N5          6.5710   -2.0920   -0.1490 n         1 MOL     -0.170986
     54 C17         7.3550   -1.4270    0.8620 c3        1 MOL     -0.213132
     55 C18         7.2880    0.0940    0.9160 c         1 MOL      0.491562
     56 O9          7.8320    0.7140    1.8250 o         1 MOL     -0.566281
     57 H25         5.7350   -2.5030    0.2340 hn        1 MOL      0.152989
     58 H26         8.3980   -1.6780    0.6540 h1        1 MOL      0.122398
     59 H27         7.1090   -1.8320    1.8390 h1        1 MOL      0.122398
     60 N6          6.7050    0.7330   -0.0910 n         1 MOL     -0.067368
     61 C19         6.9720    2.1890   -0.3370 c3        1 MOL      0.021774
     62 C20         5.6960    3.0650   -0.3840 c         1 MOL      0.356518
     63 O10         4.6040    2.5550   -0.6050 o         1 MOL     -0.362221
     64 C21         7.8530    2.3040   -1.5910 c3        1 MOL     -0.260279
     65 C22         7.1750    1.9700   -2.9060 c         1 MOL      0.607186
     66 N7          7.4280    0.7060   -3.3540 n         1 MOL     -0.719094
     67 O11         6.5380    2.8230   -3.5230 o         1 MOL     -0.547892
     68 H28         6.2430    0.2550   -0.8510 hn        1 MOL      0.205781
     69 H29         7.4680    2.6610    0.5070 h1        1 MOL      0.052610
     70 H30         8.7140    1.6580   -1.4220 hc        1 MOL      0.076940
     71 H31         8.1880    3.3360   -1.6640 hc        1 MOL      0.076940
     72 H32         7.9980    0.1120   -2.7790 hn        1 MOL      0.342507
     73 H33         7.1790    0.4650   -4.3010 hn        1 MOL      0.342507
     74 N8          5.9300    4.3660   -0.1470 n         1 MOL     -0.256236
     75 C23         4.9290    5.3810   -0.1440 c3        1 MOL     -0.366874
     76 C24         3.7020    5.0400    0.6430 c         1 MOL      0.619916
     77 O12         3.6980    4.7200    1.8520 o         1 MOL     -0.490450
     78 H34         6.8830    4.6690    0.0410 hn        1 MOL      0.318584
     79 H35         4.5850    5.5270   -1.1670 h1        1 MOL      0.153222
     80 H36         5.3900    6.2950    0.2290 h1        1 MOL      0.153222
     81 N9          2.4930    5.1100    0.0320 n         1 MOL     -0.505565
     82 C25         1.2580    4.8550    0.7380 c3        1 MOL     -0.076075
     83 C26         1.1510    3.3850    1.1680 c         1 MOL      0.637875
     84 O13         1.9700    2.5380    0.8260 o         1 MOL     -0.571998
     85 C27         0.0660    5.2150   -0.1820 c3        1 MOL     -0.240381
     86 C28        -0.1860    6.6610   -0.5140 ca        1 MOL      0.177320
     87 C29        -0.3990    7.5490    0.5500 ca        1 MOL     -0.213261
     88 C30        -0.3770    7.0910   -1.8070 ca        1 MOL     -0.213261
     89 C31        -0.9160    8.8900    0.3200 ca        1 MOL     -0.218981
     90 C32        -0.7500    8.4310   -2.1070 ca        1 MOL     -0.218981
     91 C33        -1.0150    9.3410   -1.0240 ca        1 MOL      0.286036
     92 O14        -1.4810   10.6380   -1.2740 oh        1 MOL     -0.477369
     93 H37         2.4570    5.4080   -0.9360 hn        1 MOL      0.320402
     94 H38         1.1740    5.3740    1.6910 h1        1 MOL      0.121050
     95 H39        -0.8280    4.7730    0.2560 hc        1 MOL      0.096227
     96 H40         0.1600    4.6770   -1.1170 hc        1 MOL      0.096227
     97 H41        -0.2740    7.2160    1.5640 ha        1 MOL      0.140898
     98 H42        -0.2260    6.3720   -2.6020 ha        1 MOL      0.140898
     99 H43        -1.0420    9.6180    1.1000 ha        1 MOL      0.158989
    100 H44        -0.8260    8.6950   -3.1550 ha        1 MOL      0.158989
    101 H45        -1.5790   11.1770   -0.4790 ho        1 MOL      0.367295
    102 N10         0.0960    3.0370    1.9930 n         1 MOL     -0.490874
    103 C34        -0.0260    1.7610    2.7160 c3        1 MOL      0.044163
    104 C35        -0.1270    0.5890    1.6900 c         1 MOL      0.230368
    105 O15         0.8170    0.1480    1.0580 o         1 MOL     -0.242251
    106 C36         1.1110    1.5940    3.8170 c3        1 MOL      0.122835
    107 C37         1.0980    0.2090    4.5040 c3        1 MOL     -0.006840
    108 C38         0.9070    2.7000    4.8530 c3        1 MOL     -0.380259
    109 C39        -0.1080   -0.1280    5.4270 c3        1 MOL     -0.197641
    110 H46        -0.5780    3.7890    2.0320 hn        1 MOL      0.290150
    111 H47        -1.0090    1.8110    3.1740 h1        1 MOL      0.097180
    112 H48         2.0820    1.7390    3.3390 hc        1 MOL      0.082877
    113 H49         1.9870    0.1400    5.1180 hc        1 MOL      0.040714
    114 H50         1.1940   -0.6400    3.8350 hc        1 MOL      0.040714
    115 H51         0.0090    2.5860    5.4650 hc        1 MOL      0.097538
    116 H52         1.7620    2.6270    5.5250 hc        1 MOL      0.097538
    117 H53         0.8470    3.6160    4.2690 hc        1 MOL      0.097538
    118 H54        -0.1120    0.4090    6.3770 hc        1 MOL      0.047696
    119 H55        -1.0210    0.2180    4.9450 hc        1 MOL      0.047696
    120 H56        -0.0900   -1.2090    5.5490 hc        1 MOL      0.047696
    121 N11        -1.3010   -0.0210    1.5970 n         1 MOL     -0.393789
    122 C40        -1.5320   -1.2580    0.7950 c3        1 MOL      0.050798
    123 C41        -2.9640   -1.4880    0.2330 c         1 MOL      0.698214
    124 O16        -3.1460   -2.3830   -0.5400 o         1 MOL     -0.576238
    125 C42        -1.1500   -2.4830    1.5440 c3        1 MOL      0.291747
    126 O17        -2.0980   -2.7500    2.5970 oh        1 MOL     -0.687024
    127 H57        -1.9900    0.2500    2.2810 hn        1 MOL      0.274552
    128 H58        -0.8420   -1.2400   -0.0460 h1        1 MOL     -0.008048
    129 H59        -0.1930   -2.3650    2.0540 h1        1 MOL      0.027598
    130 H60        -1.1850   -3.2820    0.8030 h1        1 MOL      0.027598
    131 H61        -1.7850   -3.3710    3.2530 ho        1 MOL      0.417015
    132 N12        -3.9240   -0.6190    0.5780 n         1 MOL     -0.713311
    133 C43        -5.3460   -0.7420    0.1570 c3        1 MOL      0.415862
    134 C44        -5.6600   -0.0620   -1.1880 c         1 MOL      0.557152
    135 O18        -4.8900    0.7560   -1.5540 o         1 MOL     -0.556266
    136 C45        -6.1800   -0.1670    1.2900 c3        1 MOL     -0.328223
    137 H62        -3.6800    0.0460    1.3040 hn        1 MOL      0.316297
    138 H63        -5.4710   -1.8130   -0.0400 h1        1 MOL      0.011237
    139 H64        -7.0850   -0.7410    1.5050 hc        1 MOL      0.090795
    140 H65        -5.5370   -0.1200    2.1750 hc        1 MOL      0.090795
    141 H66        -6.4270    0.8540    1.0000 hc        1 MOL      0.090795
    142 N13        -6.8320   -0.2880   -1.8700 n         1 MOL     -0.614287
    143 C46        -7.9160   -1.2180   -1.5020 c3        1 MOL      0.326048
    144 C47        -9.2600   -0.7900   -2.1100 c         1 MOL      0.488858
    145 O19        -9.2630   -0.2240   -3.1300 o         1 MOL     -0.527915
    146 C48        -7.5860   -2.6350   -1.9460 c3        1 MOL     -0.258201
    147 H67        -6.9430    0.3420   -2.6510 hn        1 MOL      0.327646
    148 H68        -7.9860   -1.1430   -0.4210 h1        1 MOL     -0.081780
    149 H69        -8.2770   -3.3150   -1.4440 hc        1 MOL      0.066494
    150 H70        -7.7780   -2.7870   -3.0070 hc        1 MOL      0.066494
    151 H71        -6.5770   -2.9850   -1.7310 hc        1 MOL      0.066494
    152 N14       -10.4410   -0.9870   -1.5170 n         1 MOL     -0.382283
    153 C49       -10.6840   -1.4490   -0.1920 c3        1 MOL     -0.176855
    154 C50       -10.2340   -0.4170    0.8990 c         1 MOL      0.704812
    155 O20        -9.6090   -0.8570    1.8840 o         1 MOL     -0.651364
    156 C51       -12.2600   -1.6980   -0.1850 c3        1 MOL     -0.024395
    157 C52       -13.1900   -0.4520    0.1020 c3        1 MOL     -0.139271
    158 C53       -13.1680    0.6630   -0.9910 c         1 MOL      0.660971
    159 O21       -12.6440    1.7540   -0.6530 o         1 MOL     -0.653703
    160 O22       -13.4780    0.4340   -2.1670 o         1 MOL     -0.653703
    161 H72       -11.2840   -0.7600   -2.0320 hn        1 MOL      0.307309
    162 H73       -10.0790   -2.3640   -0.1540 h1        1 MOL      0.073591
    163 H74       -12.4240   -2.4560    0.5810 hc        1 MOL      0.029101
    164 H75       -12.5950   -2.0530   -1.1610 hc        1 MOL      0.029101
    165 H76       -12.8150   -0.0820    1.0600 hc        1 MOL      0.013808
    166 H77       -14.2110   -0.8070    0.2050 hc        1 MOL      0.013808
    167 N15       -10.3500    0.8550    0.7370 n         1 MOL     -0.196718
    168 C54        -9.7410    1.8690    1.5760 c3        1 MOL     -0.308933
    169 H78       -10.0920    2.8540    1.2670 h1        1 MOL      0.119056
    170 H79       -10.0180    1.6950    2.6160 h1        1 MOL      0.119056
    171 H80        -8.6570    1.8230    1.4750 h1        1 MOL      0.119056
    172 H81       -10.7570    1.1560   -0.1310 hn        1 MOL      0.223006
    173 Ca1         2.7160    0.6390   -0.7570 Ca        1 MOL      1.723882
    174 O23         1.3920   -2.1530   -1.4200 oh        1 MOL     -0.903285
    175 H82         1.8350   -1.8330   -2.2010 ho        1 MOL      0.441156
    176 H83         0.7350   -2.7650   -1.7490 ho        1 MOL      0.441156
    177 O24         2.3820    2.0540   -3.0890 oh        1 MOL     -0.903285
    178 H84         2.7100    2.8530   -3.4930 ho        1 MOL      0.441156
    179 H85         2.3220    1.4240   -3.8040 ho        1 MOL      0.441156
    180 O25         0.3050    0.6440   -1.8060 oh        1 MOL     -0.903285
    181 H86        -0.6500    0.6060   -1.8110 ho        1 MOL      0.441156
    182 H87         0.5510    0.7180   -2.7260 ho        1 MOL      0.441156
@<TRIPOS>BOND
     1    1    2 1   
     2    1    4 1   
     3    1    5 1   
     4    1    6 1   
     5    2    3 2   
     6    2    7 1   
     7    7    8 1   
     8    7   15 1   
     9    8    9 1   
    10    8   11 1   
    11    8   16 1   
    12    9   10 2   
    13    9   19 1   
    14   11   12 1   
    15   11   17 1   
    16   11   18 1   
    17   12   13 1   
    18   12   14 1   
    19   19   20 1   
    20   19   28 1   
    21   20   21 1   
    22   20   23 1   
    23   20   29 1   
    24   21   22 2   
    25   21   41 1   
    26   23   24 1   
    27   23   30 1   
    28   23   31 1   
    29   24   25 1   
    30   24   32 1   
    31   24   33 1   
    32   25   26 1   
    33   25   34 1   
    34   25   35 1   
    35   26   27 1   
    36   26   36 1   
    37   26   37 1   
    38   27   38 1   
    39   27   39 1   
    40   27   40 1   
    41   41   42 1   
    42   41   49 1   
    43   42   43 1   
    44   42   45 1   
    45   42   50 1   
    46   43   44 2   
    47   43   53 1   
    48   45   46 1   
    49   45   51 1   
    50   45   52 1   
    51   46   47 1   
    52   46   48 1   
    53   53   54 1   
    54   53   57 1   
    55   54   55 1   
    56   54   58 1   
    57   54   59 1   
    58   55   56 2   
    59   55   60 1   
    60   60   61 1   
    61   60   68 1   
    62   61   62 1   
    63   61   64 1   
    64   61   69 1   
    65   62   63 2   
    66   62   74 1   
    67   64   65 1   
    68   64   70 1   
    69   64   71 1   
    70   65   66 1   
    71   65   67 2   
    72   66   72 1   
    73   66   73 1   
    74   74   75 1   
    75   74   78 1   
    76   75   76 1   
    77   75   79 1   
    78   75   80 1   
    79   76   77 2   
    80   76   81 1   
    81   81   82 1   
    82   81   93 1   
    83   82   83 1   
    84   82   85 1   
    85   82   94 1   
    86   83   84 2   
    87   83  102 1   
    88   85   86 1   
    89   85   95 1   
    90   85   96 1   
    91   86   87 ar  
    92   86   88 ar  
    93   87   89 ar  
    94   87   97 1   
    95   88   90 ar  
    96   88   98 1   
    97   89   91 ar  
    98   89   99 1   
    99   90   91 ar  
   100   90  100 1   
   101   91   92 1   
   102   92  101 1   
   103  102  103 1   
   104  102  110 1   
   105  103  104 1   
   106  103  106 1   
   107  103  111 1   
   108  104  105 2   
   109  104  121 1   
   110  106  107 1   
   111  106  108 1   
   112  106  112 1   
   113  107  109 1   
   114  107  113 1   
   115  107  114 1   
   116  108  115 1   
   117  108  116 1   
   118  108  117 1   
   119  109  118 1   
   120  109  119 1   
   121  109  120 1   
   122  121  122 1   
   123  121  127 1   
   124  122  123 1   
   125  122  125 1   
   126  122  128 1   
   127  123  124 2   
   128  123  132 1   
   129  125  126 1   
   130  125  129 1   
   131  125  130 1   
   132  126  131 1   
   133  132  133 1   
   134  132  137 1   
   135  133  134 1   
   136  133  136 1   
   137  133  138 1   
   138  134  135 2   
   139  134  142 1   
   140  136  139 1   
   141  136  140 1   
   142  136  141 1   
   143  142  143 1   
   144  142  147 1   
   145  143  144 1   
   146  143  146 1   
   147  143  148 1   
   148  144  145 2   
   149  144  152 1   
   150  146  149 1   
   151  146  150 1   
   152  146  151 1   
   153  152  153 1   
   154  152  161 1   
   155  153  154 1   
   156  153  156 1   
   157  153  162 1   
   158  154  155 2   
   159  154  167 1   
   160  156  157 1   
   161  156  163 1   
   162  156  164 1   
   163  157  158 1   
   164  157  165 1   
   165  157  166 1   
   166  158  159 1   
   167  158  160 1   
   168  167  168 1   
   169  167  172 1   
   170  168  169 1   
   171  168  170 1   
   172  168  171 1   
   173  174  175 1   
   174  174  176 1   
   175  177  178 1   
   176  177  179 1   
   177  180  181 1   
   178  180  182 1   
@<TRIPOS>SUBSTRUCTURE
     1 MOL         1 TEMP              0 ****  ****    0 ROOT
