@<TRIPOS>MOLECULE
MOL
  192   187     1     0     0
SMALL
resp


@<TRIPOS>ATOM
      1 C1          9.2470    1.4420    1.9050 c3        1 MOL     -0.564446
      2 C2          8.1530    0.6320    1.1810 c         1 MOL      0.743668
      3 O1          7.0600    0.2410    1.7370 o         1 MOL     -0.656417
      4 H1          8.8030    1.9910    2.7350 hc        1 MOL      0.159497
      5 H2         10.0100    0.7630    2.2860 hc        1 MOL      0.159497
      6 H3          9.7010    2.1460    1.2070 hc        1 MOL      0.159497
      7 N1          8.3270    0.4090   -0.1600 n         1 MOL     -0.642344
      8 C3          7.5090   -0.1160   -1.2350 c3        1 MOL      0.163160
      9 C4          7.3030   -1.6300   -1.1980 c         1 MOL      0.520757
     10 O2          7.3730   -2.3150   -2.2000 o         1 MOL     -0.514300
     11 C5          8.0610    0.2790   -2.6210 c3        1 MOL     -0.264117
     12 C6          8.4980    1.7290   -2.7240 c         1 MOL      0.783542
     13 O3          9.5050    2.0590   -3.3550 o         1 MOL     -0.686990
     14 O4          7.7280    2.5980   -2.2400 o         1 MOL     -0.686990
     15 H4          9.2100    0.7880   -0.4860 hn        1 MOL      0.304563
     16 H5          6.5570    0.3800   -1.0410 h1        1 MOL      0.117185
     17 H6          7.3430    0.0920   -3.4210 hc        1 MOL      0.065872
     18 H7          8.9700   -0.2890   -2.8210 hc        1 MOL      0.065872
     19 N2          6.9360   -2.1420    0.0020 n         1 MOL     -0.397574
     20 C7          6.4430   -3.4420    0.3310 c3        1 MOL      0.351048
     21 C8          4.9980   -3.8550   -0.0190 c         1 MOL      0.386454
     22 O5          4.7860   -5.0200   -0.3770 o         1 MOL     -0.522071
     23 C9          6.7150   -3.7640    1.7870 c3        1 MOL     -0.086721
     24 C10         8.0400   -3.3680    2.3670 c3        1 MOL     -0.105588
     25 C11         9.2020   -4.1100    1.6750 c3        1 MOL      0.022092
     26 C12        10.4930   -3.8360    2.4280 c3        1 MOL      0.080937
     27 N3         11.6350   -4.4630    1.7500 n4        1 MOL     -0.379944
     28 H8          7.0430   -1.4300    0.7110 hn        1 MOL      0.174925
     29 H9          7.0220   -4.1930   -0.1960 h1        1 MOL     -0.052395
     30 H10         6.4750   -4.8190    1.9100 hc        1 MOL      0.031574
     31 H11         5.9370   -3.1960    2.2910 hc        1 MOL      0.031574
     32 H12         7.9210   -3.7030    3.3950 hc        1 MOL      0.035733
     33 H13         8.1460   -2.2800    2.2780 hc        1 MOL      0.035733
     34 H14         9.2840   -3.7070    0.6680 hc        1 MOL      0.031840
     35 H15         8.9240   -5.1580    1.6320 hc        1 MOL      0.031840
     36 H16        10.4080   -4.1850    3.4550 hx        1 MOL      0.054886
     37 H17        10.6020   -2.7720    2.6220 hx        1 MOL      0.054886
     38 H18        11.4030   -5.4340    1.6260 hn        1 MOL      0.298094
     39 H19        11.8350   -4.0010    0.8720 hn        1 MOL      0.298094
     40 H20        12.4630   -4.3580    2.3240 hn        1 MOL      0.298094
     41 N4          3.9580   -2.9570   -0.0030 n         1 MOL     -0.293756
     42 C13         3.8660   -1.7830    0.8160 c3        1 MOL      0.024511
     43 C14         3.9670   -0.4280    0.0050 c         1 MOL      0.080490
     44 O6          3.9240   -0.4240   -1.2150 o         1 MOL     -0.430057
     45 C15         2.5790   -1.7660    1.5440 c3        1 MOL     -0.419626
     46 C16         1.4080   -2.1460    0.7220 c         1 MOL      0.966779
     47 O7          0.7680   -1.2680    0.1380 o         1 MOL     -0.774291
     48 O8          1.0200   -3.3350    0.7080 o         1 MOL     -0.774291
     49 H21         3.0930   -3.4550   -0.1350 hn        1 MOL      0.309730
     50 H22         4.7090   -1.7230    1.4910 h1        1 MOL      0.153633
     51 H23         2.3970   -0.7670    1.9230 hc        1 MOL      0.061282
     52 H24         2.6750   -2.4570    2.3810 hc        1 MOL      0.061282
     53 N5          4.0270    0.6940    0.7000 n         1 MOL      0.020534
     54 C17         4.1190    2.0280    0.1040 c3        1 MOL      0.067032
     55 C18         2.8880    2.5170   -0.6530 c         1 MOL      0.530048
     56 O9          1.7770    2.0340   -0.4270 o         1 MOL     -0.534078
     57 H25         4.0620    0.6060    1.7040 hn        1 MOL      0.196871
     58 H26         5.0190    2.0560   -0.5050 h1        1 MOL      0.017773
     59 H27         4.2590    2.6880    0.9510 h1        1 MOL      0.017773
     60 N6          2.9600    3.6180   -1.3850 n         1 MOL     -0.505115
     61 C19         1.8210    4.3690   -1.9250 c3        1 MOL      0.238870
     62 C20         2.3030    5.8180   -1.9370 c         1 MOL      0.412248
     63 O10         3.5590    5.9840   -1.8780 o         1 MOL     -0.515452
     64 C21         1.5770    3.9530   -3.3640 c3        1 MOL     -0.409647
     65 C22         1.2250    2.4540   -3.5000 c         1 MOL      0.722409
     66 O11         0.1480    2.0520   -3.0240 o         1 MOL     -0.676977
     67 O12         2.0220    1.7600   -4.2190 o         1 MOL     -0.676977
     68 H28         3.8490    3.9970   -1.6920 hn        1 MOL      0.349376
     69 H29         0.9020    4.2320   -1.3600 h1        1 MOL      0.065434
     70 H30         2.5390    4.1110   -3.8390 hc        1 MOL      0.121130
     71 H31         0.7350    4.4970   -3.7990 hc        1 MOL      0.121130
     72 N7          1.4260    6.8440   -1.8950 n         1 MOL     -0.406404
     73 C23        -0.0320    6.7460   -2.0150 c3        1 MOL     -0.002847
     74 C24        -0.8290    6.3250   -0.7040 c         1 MOL      0.530622
     75 O13        -0.3880    6.7120    0.4270 o         1 MOL     -0.528106
     76 H32         1.8040    7.7510   -1.6510 hn        1 MOL      0.316101
     77 H33        -0.2450    5.9930   -2.7830 h1        1 MOL      0.051894
     78 H34        -0.4510    7.6900   -2.3790 h1        1 MOL      0.051894
     79 N8         -1.7720    5.3970   -0.7900 n         1 MOL     -0.561784
     80 C25        -2.4790    4.8150    0.3360 c3        1 MOL      0.060721
     81 C26        -1.6870    3.6190    0.9060 c         1 MOL      0.890420
     82 O14        -1.0380    2.9120    0.1640 o         1 MOL     -0.660433
     83 C27        -3.9890    4.6430   -0.0710 c3        1 MOL      0.216120
     84 C28        -4.9090    4.0930    0.9670 c3        1 MOL     -0.302475
     85 O15        -4.1260    3.7150   -1.0510 oh        1 MOL     -0.597474
     86 H35        -2.0250    5.1320   -1.7230 hn        1 MOL      0.326509
     87 H36        -2.3660    5.5220    1.1590 h1        1 MOL      0.045145
     88 H37        -4.3800    5.5990   -0.4020 h1        1 MOL      0.050655
     89 H38        -5.0690    3.6270   -1.1750 ho        1 MOL      0.425590
     90 H39        -4.8370    3.0080    0.9660 hc        1 MOL      0.071407
     91 H40        -4.7900    4.5790    1.9300 hc        1 MOL      0.071407
     92 H41        -5.9440    4.2680    0.6470 hc        1 MOL      0.071407
     93 N9         -1.7070    3.4020    2.2580 n         1 MOL     -0.761595
     94 C29        -1.0700    2.2270    2.9220 c3        1 MOL      0.066950
     95 C30        -1.5940    0.7740    2.4850 c         1 MOL      0.560041
     96 O16        -1.7510    0.4250    1.3520 o         1 MOL     -0.545545
     97 C31         0.5140    2.2690    2.9790 c3        1 MOL      0.522523
     98 C32         1.0970    3.7150    3.2500 c3        1 MOL     -0.119167
     99 C33         1.0720    1.2900    3.9940 c3        1 MOL     -0.593528
    100 C34         0.7350    4.3710    4.5720 c3        1 MOL     -0.175711
    101 H42        -2.2480    4.0070    2.8700 hn        1 MOL      0.348206
    102 H43        -1.4260    2.3510    3.9470 h1        1 MOL      0.028495
    103 H44         0.9150    1.9600    2.0170 hc        1 MOL     -0.222312
    104 H45         0.8410    4.3780    2.4360 hc        1 MOL      0.069839
    105 H46         2.1870    3.6830    3.2110 hc        1 MOL      0.069839
    106 H47         0.5480    1.4500    4.9260 hc        1 MOL      0.137385
    107 H48         0.9770    0.2840    3.5920 hc        1 MOL      0.137385
    108 H49         2.1440    1.3760    4.1590 hc        1 MOL      0.137385
    109 H50         1.1450    3.8070    5.4050 hc        1 MOL      0.041054
    110 H51         1.0970    5.4050    4.5130 hc        1 MOL      0.041054
    111 H52        -0.3320    4.3720    4.7930 hc        1 MOL      0.041054
    112 N10        -1.9290   -0.0920    3.4700 n         1 MOL     -0.382945
    113 C35        -2.4080   -1.4980    3.3220 c3        1 MOL     -0.133798
    114 C36        -3.8240   -1.6390    2.8520 c         1 MOL      0.718287
    115 O17        -4.1720   -2.6970    2.3040 o         1 MOL     -0.618344
    116 C37        -2.3760   -2.2270    4.6870 c3        1 MOL      0.437758
    117 C38        -3.4140   -1.8100    5.7670 c3        1 MOL     -0.272439
    118 O18        -1.1340   -2.0820    5.3430 oh        1 MOL     -0.624353
    119 H53        -1.7810    0.2130    4.4270 hn        1 MOL      0.226678
    120 H54        -1.7820   -2.0370    2.6160 h1        1 MOL      0.070006
    121 H55        -2.5440   -3.3010    4.5550 h1        1 MOL     -0.006658
    122 H56        -0.5280   -2.6650    4.8870 ho        1 MOL      0.393033
    123 H57        -3.1520   -2.3880    6.6510 hc        1 MOL      0.068253
    124 H58        -3.4170   -0.7300    5.9570 hc        1 MOL      0.068253
    125 H59        -4.3940   -2.0830    5.3740 hc        1 MOL      0.068253
    126 N11        -4.6900   -0.6680    3.0390 n         1 MOL     -0.355315
    127 C39        -6.0510   -0.6920    2.6950 c3        1 MOL     -0.015521
    128 C40        -6.2000   -0.9780    1.1680 c         1 MOL      0.400861
    129 O19        -5.6000   -0.1710    0.4010 o         1 MOL     -0.519995
    130 C41        -6.7520    0.6370    3.1990 c3        1 MOL      0.361795
    131 C42        -8.2810    0.6730    2.8790 c3        1 MOL     -0.354514
    132 O20        -6.6830    0.6650    4.5890 oh        1 MOL     -0.598880
    133 H60        -4.3180    0.2250    3.3490 hn        1 MOL      0.172301
    134 H61        -6.4920   -1.5580    3.1990 h1        1 MOL      0.081904
    135 H62        -6.2880    1.5270    2.7710 h1        1 MOL      0.007125
    136 H63        -5.9920    1.3090    4.7760 ho        1 MOL      0.379691
    137 H64        -8.4400    1.0190    1.8600 hc        1 MOL      0.103402
    138 H65        -8.6690   -0.3370    3.0510 hc        1 MOL      0.103402
    139 H66        -8.8050    1.4840    3.3870 hc        1 MOL      0.103402
    140 N12        -6.8510   -2.0280    0.6910 n         1 MOL     -0.250977
    141 C43        -7.1400   -2.3960   -0.7130 c3        1 MOL      0.034171
    142 C44        -5.9150   -2.3930   -1.6850 c         1 MOL      0.546745
    143 O21        -5.8990   -1.8290   -2.7570 o         1 MOL     -0.513245
    144 C45        -8.3350   -1.5280   -1.1630 c3        1 MOL     -0.203993
    145 C46        -9.5320   -1.3980   -0.1820 c3        1 MOL      0.083158
    146 C47       -10.4630   -0.3050   -0.6300 c3        1 MOL     -0.166758
    147 C48       -11.0740   -0.6570   -2.0000 c3        1 MOL      0.074681
    148 N13       -12.0780    0.4150   -2.3070 n4        1 MOL     -0.095634
    149 H67        -7.3050   -2.5660    1.4140 hn        1 MOL      0.212260
    150 H68        -7.5540   -3.3940   -0.6280 h1        1 MOL      0.060934
    151 H69        -8.7370   -1.9280   -2.0960 hc        1 MOL      0.080848
    152 H70        -7.9050   -0.5370   -1.2860 hc        1 MOL      0.080848
    153 H71        -9.2440   -1.0900    0.8230 hc        1 MOL      0.010915
    154 H72        -9.9970   -2.3710   -0.0170 hc        1 MOL      0.010915
    155 H73        -9.8840    0.6150   -0.7810 hc        1 MOL      0.047483
    156 H74       -11.2060   -0.0920    0.1320 hc        1 MOL      0.047483
    157 H75       -11.5930   -1.6230   -2.0490 hx        1 MOL      0.072012
    158 H76       -10.2790   -0.5960   -2.7440 hx        1 MOL      0.072012
    159 H77       -11.6900    1.3370   -2.1820 hn        1 MOL      0.173293
    160 H78       -12.4350    0.4550   -3.2540 hn        1 MOL      0.173293
    161 H79       -12.8820    0.3280   -1.7080 hn        1 MOL      0.173293
    162 N14        -4.8410   -3.0960   -1.2400 n         1 MOL     -0.617919
    163 C49        -3.5100   -3.1000   -1.8890 c3        1 MOL      0.600550
    164 C50        -2.4170   -2.7790   -0.7960 c         1 MOL      0.162174
    165 O22        -2.0850   -1.6190   -0.7420 o         1 MOL     -0.459687
    166 C51        -3.2590   -4.3130   -2.8240 c3        1 MOL     -0.140084
    167 C52        -4.0300   -4.0550   -4.1210 c3        1 MOL     -0.253980
    168 C53        -3.8370   -5.2860   -5.0790 c         1 MOL      0.700695
    169 O23        -4.5560   -6.3220   -4.8690 o         1 MOL     -0.625302
    170 O24        -3.0030   -5.2560   -5.9830 o         1 MOL     -0.625302
    171 H80        -4.9870   -3.4100   -0.2880 hn        1 MOL      0.288794
    172 H81        -3.4690   -2.1840   -2.4810 h1        1 MOL      0.024996
    173 H82        -3.6820   -5.1730   -2.2950 hc        1 MOL      0.059355
    174 H83        -2.1870   -4.4350   -2.9390 hc        1 MOL      0.059355
    175 H84        -3.6590   -3.1240   -4.5610 hc        1 MOL      0.048673
    176 H85        -5.0740   -3.8680   -3.8790 hc        1 MOL      0.048673
    177 N15        -1.9150   -3.6590    0.0660 n         1 MOL     -0.229927
    178 C54        -2.2690   -5.0750    0.2560 c3        1 MOL     -0.125858
    179 H86        -1.3700   -5.6450    0.4900 h1        1 MOL      0.059956
    180 H87        -2.9800   -5.1660    1.0780 h1        1 MOL      0.059956
    181 H88        -2.7190   -5.4640   -0.6580 h1        1 MOL      0.059956
    182 H89        -1.2580   -3.3240    0.7560 hn        1 MOL      0.342044
    183 Ca1        -0.5400    0.4630   -1.1250 Ca        1 MOL      1.763145
    184 O25        -1.1500   -0.7440   -3.5540 oh        1 MOL     -0.894562
    185 H90        -1.0640   -0.1100   -4.2610 ho        1 MOL      0.424206
    186 H91        -0.9700   -1.5860   -3.9670 ho        1 MOL      0.424206
    187 O26        -3.0970    1.2230   -1.6520 oh        1 MOL     -0.894562
    188 H92        -3.2710    2.1340   -1.4110 ho        1 MOL      0.424206
    189 H93        -3.8960    0.7530   -1.3950 ho        1 MOL      0.424206
    190 O27         1.6610   -0.5460   -2.6150 oh        1 MOL     -0.894562
    191 H94         2.5110   -0.6130   -2.1920 ho        1 MOL      0.424206
    192 H95         1.7920    0.0790   -3.3150 ho        1 MOL      0.424206
@<TRIPOS>BOND
     1    1    2 1   
     2    1    4 1   
     3    1    5 1   
     4    1    6 1   
     5    2    3 2   
     6    2    7 1   
     7    7    8 1   
     8    7   15 1   
     9    8    9 1   
    10    8   11 1   
    11    8   16 1   
    12    9   10 2   
    13    9   19 1   
    14   11   12 1   
    15   11   17 1   
    16   11   18 1   
    17   12   13 1   
    18   12   14 1   
    19   19   20 1   
    20   19   28 1   
    21   20   21 1   
    22   20   23 1   
    23   20   29 1   
    24   21   22 2   
    25   21   41 1   
    26   23   24 1   
    27   23   30 1   
    28   23   31 1   
    29   24   25 1   
    30   24   32 1   
    31   24   33 1   
    32   25   26 1   
    33   25   34 1   
    34   25   35 1   
    35   26   27 1   
    36   26   36 1   
    37   26   37 1   
    38   27   38 1   
    39   27   39 1   
    40   27   40 1   
    41   41   42 1   
    42   41   49 1   
    43   42   43 1   
    44   42   45 1   
    45   42   50 1   
    46   43   44 2   
    47   43   53 1   
    48   45   46 1   
    49   45   51 1   
    50   45   52 1   
    51   46   47 1   
    52   46   48 1   
    53   53   54 1   
    54   53   57 1   
    55   54   55 1   
    56   54   58 1   
    57   54   59 1   
    58   55   56 2   
    59   55   60 1   
    60   60   61 1   
    61   60   68 1   
    62   61   62 1   
    63   61   64 1   
    64   61   69 1   
    65   62   63 2   
    66   62   72 1   
    67   64   65 1   
    68   64   70 1   
    69   64   71 1   
    70   65   66 1   
    71   65   67 1   
    72   72   73 1   
    73   72   76 1   
    74   73   74 1   
    75   73   77 1   
    76   73   78 1   
    77   74   75 2   
    78   74   79 1   
    79   79   80 1   
    80   79   86 1   
    81   80   81 1   
    82   80   83 1   
    83   80   87 1   
    84   81   82 2   
    85   81   93 1   
    86   83   84 1   
    87   83   85 1   
    88   83   88 1   
    89   84   90 1   
    90   84   91 1   
    91   84   92 1   
    92   85   89 1   
    93   93   94 1   
    94   93  101 1   
    95   94   95 1   
    96   94   97 1   
    97   94  102 1   
    98   95   96 2   
    99   95  112 1   
   100   97   98 1   
   101   97   99 1   
   102   97  103 1   
   103   98  100 1   
   104   98  104 1   
   105   98  105 1   
   106   99  106 1   
   107   99  107 1   
   108   99  108 1   
   109  100  109 1   
   110  100  110 1   
   111  100  111 1   
   112  112  113 1   
   113  112  119 1   
   114  113  114 1   
   115  113  116 1   
   116  113  120 1   
   117  114  115 2   
   118  114  126 1   
   119  116  117 1   
   120  116  118 1   
   121  116  121 1   
   122  117  123 1   
   123  117  124 1   
   124  117  125 1   
   125  118  122 1   
   126  126  127 1   
   127  126  133 1   
   128  127  128 1   
   129  127  130 1   
   130  127  134 1   
   131  128  129 2   
   132  128  140 1   
   133  130  131 1   
   134  130  132 1   
   135  130  135 1   
   136  131  137 1   
   137  131  138 1   
   138  131  139 1   
   139  132  136 1   
   140  140  141 1   
   141  140  149 1   
   142  141  142 1   
   143  141  144 1   
   144  141  150 1   
   145  142  143 2   
   146  142  162 1   
   147  144  145 1   
   148  144  151 1   
   149  144  152 1   
   150  145  146 1   
   151  145  153 1   
   152  145  154 1   
   153  146  147 1   
   154  146  155 1   
   155  146  156 1   
   156  147  148 1   
   157  147  157 1   
   158  147  158 1   
   159  148  159 1   
   160  148  160 1   
   161  148  161 1   
   162  162  163 1   
   163  162  171 1   
   164  163  164 1   
   165  163  166 1   
   166  163  172 1   
   167  164  165 2   
   168  164  177 1   
   169  166  167 1   
   170  166  173 1   
   171  166  174 1   
   172  167  168 1   
   173  167  175 1   
   174  167  176 1   
   175  168  169 1   
   176  168  170 1   
   177  177  178 1   
   178  177  182 1   
   179  178  179 1   
   180  178  180 1   
   181  178  181 1   
   182  184  185 1   
   183  184  186 1   
   184  187  188 1   
   185  187  189 1   
   186  190  191 1   
   187  190  192 1   
@<TRIPOS>SUBSTRUCTURE
     1 MOL         1 TEMP              0 ****  ****    0 ROOT
