@<TRIPOS>MOLECULE
MOL
  194   186     1     0     0
SMALL
resp


@<TRIPOS>ATOM
      1 C1          1.5160    1.9770    2.7690 c3        1 MOL     -0.383527
      2 C2          2.8060    1.6960    1.9350 c         1 MOL      0.581466
      3 O1          2.8750    1.8860    0.6780 o         1 MOL     -0.588488
      4 H1          1.3720    1.1780    3.4960 hc        1 MOL      0.107198
      5 H2          1.6210    2.9280    3.2930 hc        1 MOL      0.107198
      6 H3          0.6550    2.0220    2.1030 hc        1 MOL      0.107198
      7 N1          3.8320    1.3280    2.6870 n         1 MOL     -0.437096
      8 C3          5.2790    1.1250    2.2270 c3        1 MOL      0.230562
      9 C4          5.7280   -0.3350    2.1470 c         1 MOL      0.295878
     10 O2          6.7820   -0.6470    1.4890 o         1 MOL     -0.474045
     11 C5          6.2670    1.9160    3.1700 c3        1 MOL     -0.365409
     12 C6          6.2610    1.4560    4.6320 c         1 MOL      0.765915
     13 O3          5.4050    0.7410    5.1820 o         1 MOL     -0.714338
     14 O4          7.2630    1.8540    5.2970 o         1 MOL     -0.714338
     15 H4          3.6980    1.1690    3.6700 hn        1 MOL      0.275070
     16 H5          5.3550    1.4460    1.1900 h1        1 MOL      0.082366
     17 H6          6.0740    2.9880    3.0980 hc        1 MOL      0.097362
     18 H7          7.2970    1.7450    2.8590 hc        1 MOL      0.097362
     19 N2          4.9120   -1.2970    2.7160 n         1 MOL     -0.542484
     20 C7          5.1730   -2.7490    2.8720 c3        1 MOL      0.264895
     21 C8          5.7730   -3.3590    1.5670 c         1 MOL      0.478675
     22 O5          6.6680   -4.1940    1.6400 o         1 MOL     -0.536081
     23 C9          5.9550   -3.0690    4.1510 c3        1 MOL     -0.231508
     24 C10         7.3430   -2.4290    4.2400 c3        1 MOL     -0.052118
     25 C11         8.1750   -3.0470    5.3860 c3        1 MOL     -0.237056
     26 C12         9.3570   -2.2990    5.9150 c3        1 MOL      0.043450
     27 N3         10.1670   -3.0710    6.8750 n4        1 MOL     -0.291659
     28 H8          4.1550   -0.8800    3.2440 hn        1 MOL      0.292212
     29 H9          4.2650   -3.3480    2.9740 h1        1 MOL      0.027537
     30 H10         6.1040   -4.1380    4.2690 hc        1 MOL      0.085864
     31 H11         5.4140   -2.6910    5.0150 hc        1 MOL      0.085864
     32 H12         7.2210   -1.3930    4.5400 hc        1 MOL      0.113540
     33 H13         7.9310   -2.4780    3.3240 hc        1 MOL      0.113540
     34 H14         8.5570   -4.0330    5.1480 hc        1 MOL      0.088148
     35 H15         7.5070   -3.0790    6.2430 hc        1 MOL      0.088148
     36 H16         8.8710   -1.5240    6.5170 hx        1 MOL      0.104718
     37 H17         9.9960   -1.8410    5.1550 hx        1 MOL      0.104718
     38 H18         9.6330   -3.4140    7.6640 hn        1 MOL      0.279482
     39 H19        10.6770   -3.8160    6.4110 hn        1 MOL      0.279482
     40 H20        10.9840   -2.5970    7.2370 hn        1 MOL      0.279482
     41 N4          5.3550   -2.9080    0.3900 n         1 MOL     -0.363480
     42 C13         5.8330   -3.4100   -0.9520 c3        1 MOL      0.072370
     43 C14         5.6500   -2.3090   -1.9910 c         1 MOL      0.437033
     44 O6          5.8930   -2.5400   -3.1970 o         1 MOL     -0.522480
     45 C15         5.0820   -4.7490   -1.3310 c3        1 MOL     -0.243703
     46 C16         3.5880   -4.6830   -1.3290 c         1 MOL      0.904322
     47 O7          2.9740   -5.7620   -1.2960 o         1 MOL     -0.834499
     48 O8          2.9120   -3.6250   -1.4440 o         1 MOL     -0.834499
     49 H21         4.5630   -2.2740    0.3570 hn        1 MOL      0.199590
     50 H22         6.8850   -3.6990   -0.8590 h1        1 MOL      0.125882
     51 H23         5.4010   -5.5330   -0.6440 hc        1 MOL      0.061676
     52 H24         5.3840   -5.0250   -2.3450 hc        1 MOL      0.061676
     53 N5          5.2510   -1.1420   -1.5190 n         1 MOL     -0.309267
     54 C17         5.2780    0.1310   -2.2630 c3        1 MOL     -0.214440
     55 C18         6.6880    0.7430   -2.3930 c         1 MOL      0.569579
     56 O9          7.7470    0.1130   -2.3950 o         1 MOL     -0.504791
     57 H25         4.9580   -1.0280   -0.5670 hn        1 MOL      0.297459
     58 H26         4.6560    0.8150   -1.6880 h1        1 MOL      0.159773
     59 H27         4.8960    0.0520   -3.2760 h1        1 MOL      0.159773
     60 N6          6.8610    2.0770   -2.6120 n         1 MOL     -0.597623
     61 C19         5.7850    3.0620   -2.7480 c3        1 MOL      0.565630
     62 C20         5.8400    4.1990   -1.6370 c         1 MOL      0.363312
     63 O10         6.8900    4.4220   -1.0330 o         1 MOL     -0.532377
     64 C21         5.8380    3.6760   -4.1650 c3        1 MOL     -0.476696
     65 C22         5.5330    2.6510   -5.2280 c         1 MOL      0.758079
     66 N7          6.3250    2.6190   -6.2600 n         1 MOL     -0.783870
     67 O11         4.5930    1.9570   -5.2180 o         1 MOL     -0.563992
     68 H28         7.7740    2.4840   -2.7120 hn        1 MOL      0.322640
     69 H29         4.8370    2.5540   -2.6060 h1        1 MOL     -0.135522
     70 H30         6.7820    4.1820   -4.3380 hc        1 MOL      0.105535
     71 H31         5.0230    4.4020   -4.1090 hc        1 MOL      0.105535
     72 H32         7.1880    3.1350   -6.3000 hn        1 MOL      0.355983
     73 H33         6.0170    2.1730   -7.1070 hn        1 MOL      0.355983
     74 N8          4.7610    4.9280   -1.3090 n         1 MOL     -0.271921
     75 C23         3.4370    4.7170   -1.9580 c3        1 MOL     -0.389639
     76 C24         2.1800    5.3820   -1.2430 c         1 MOL      0.890385
     77 O12         2.3090    6.5090   -0.8890 o         1 MOL     -0.587148
     78 H34         4.8080    5.4460   -0.4530 hn        1 MOL      0.283170
     79 H35         3.1920    3.6590   -1.9440 h1        1 MOL      0.140479
     80 H36         3.5630    5.1780   -2.9440 h1        1 MOL      0.140479
     81 N9          1.0160    4.7270   -1.2360 n         1 MOL     -0.805405
     82 C25        -0.3190    5.2980   -0.7190 c3        1 MOL      0.358567
     83 C26        -1.1720    4.1230   -0.2690 c         1 MOL      0.585935
     84 O13        -0.8820    3.0010   -0.6530 o         1 MOL     -0.545126
     85 C27        -1.1080    6.1380   -1.7500 c3        1 MOL     -0.098604
     86 C28        -1.9620    7.2280   -1.1800 ca        1 MOL      0.009725
     87 C29        -3.3570    6.9940   -1.0300 ca        1 MOL     -0.110999
     88 C30        -1.3850    8.3450   -0.5540 ca        1 MOL     -0.110999
     89 C31        -4.1620    8.0140   -0.5750 ca        1 MOL     -0.314594
     90 C32        -2.2000    9.2820    0.0840 ca        1 MOL     -0.314594
     91 C33        -3.5890    9.1620    0.0320 ca        1 MOL      0.374214
     92 O14        -4.3640   10.0790    0.7070 oh        1 MOL     -0.491522
     93 H37         0.9820    3.7940   -1.6270 hn        1 MOL      0.338769
     94 H38        -0.1700    5.9110    0.1730 h1        1 MOL     -0.014124
     95 H39        -1.7200    5.4680   -2.3720 hc        1 MOL      0.049228
     96 H40        -0.4120    6.5820   -2.4590 hc        1 MOL      0.049228
     97 H41        -3.7230    6.0780   -1.4590 ha        1 MOL      0.122808
     98 H42        -0.3160    8.4660   -0.5500 ha        1 MOL      0.122808
     99 H43        -5.2230    7.8960   -0.6590 ha        1 MOL      0.159953
    100 H44        -1.7160   10.0710    0.6560 ha        1 MOL      0.159953
    101 H45        -3.7610   10.7610    0.9980 ho        1 MOL      0.355542
    102 N10        -2.1930    4.3790    0.5280 n         1 MOL     -0.486820
    103 C34        -3.1230    3.3280    1.0310 c3        1 MOL     -0.107524
    104 C35        -4.0550    2.9320   -0.1520 c         1 MOL      0.593159
    105 O15        -4.2980    3.6820   -1.0950 o         1 MOL     -0.519472
    106 C36        -3.8160    3.8710    2.2890 c3        1 MOL      0.117769
    107 C37        -4.7430    5.1300    2.1610 c3        1 MOL      0.048686
    108 C38        -4.6920    2.7920    3.0570 c3        1 MOL     -0.045490
    109 C39        -5.2890    5.8290    3.4530 c3        1 MOL     -0.396129
    110 H46        -2.3140    5.2260    1.0520 hn        1 MOL      0.259106
    111 H47        -2.6200    2.4160    1.3340 h1        1 MOL      0.102173
    112 H48        -3.0140    4.1400    2.9720 hc        1 MOL      0.034353
    113 H49        -5.5180    5.0380    1.3920 hc        1 MOL      0.042365
    114 H50        -4.1140    5.9010    1.7130 hc        1 MOL      0.042365
    115 H51        -4.6730    3.0020    4.1270 hc        1 MOL      0.000731
    116 H52        -5.7190    2.8680    2.6810 hc        1 MOL      0.000731
    117 H53        -4.4250    1.7410    2.9430 hc        1 MOL      0.000731
    118 H54        -5.9020    6.7090    3.3170 hc        1 MOL      0.106655
    119 H55        -6.0500    5.1420    3.8310 hc        1 MOL      0.106655
    120 H56        -4.4170    6.0830    4.0520 hc        1 MOL      0.106655
    121 N11        -4.6560    1.7370   -0.2410 n         1 MOL     -0.442199
    122 C40        -5.4620    1.2680   -1.3660 c3        1 MOL      0.032740
    123 C41        -5.5090   -0.2780   -1.4410 c         1 MOL      0.645873
    124 O16        -5.3830   -0.9770   -0.3870 o         1 MOL     -0.556790
    125 C42        -6.9300    1.7620   -1.3620 c3        1 MOL      0.157158
    126 O17        -7.6170    1.5500   -0.1690 oh        1 MOL     -0.543008
    127 H57        -4.5160    1.0880    0.5300 hn        1 MOL      0.260778
    128 H58        -4.9970    1.6820   -2.2630 h1        1 MOL      0.075876
    129 H59        -7.4330    1.2740   -2.1980 h1        1 MOL     -0.004021
    130 H60        -6.9170    2.8160   -1.6610 h1        1 MOL     -0.004021
    131 H61        -8.4760    1.9630   -0.2980 ho        1 MOL      0.414058
    132 N12        -5.7200   -0.8200   -2.6310 n         1 MOL     -0.705162
    133 C43        -5.9470   -2.2590   -2.9430 c3        1 MOL      0.618165
    134 C44        -6.8630   -3.0430   -1.9130 c         1 MOL      0.298517
    135 O18        -6.4410   -3.9430   -1.2030 o         1 MOL     -0.388168
    136 C45        -4.5850   -2.9480   -3.1470 c3        1 MOL     -0.681691
    137 H62        -5.7120   -0.2200   -3.4460 hn        1 MOL      0.312741
    138 H63        -6.4840   -2.3340   -3.8840 h1        1 MOL     -0.027250
    139 H64        -4.0770   -2.6240   -4.0530 hc        1 MOL      0.166707
    140 H65        -3.9230   -2.9140   -2.2900 hc        1 MOL      0.166707
    141 H66        -4.9010   -3.9810   -3.2820 hc        1 MOL      0.166707
    142 N13        -8.1840   -2.8160   -1.9310 n         1 MOL     -0.516124
    143 C46        -9.2760   -3.2430   -0.9970 c3        1 MOL      0.346068
    144 C47        -9.0900   -3.0860    0.5400 c         1 MOL      0.179106
    145 O19        -9.9200   -3.4310    1.4270 o         1 MOL     -0.469646
    146 C48        -9.7730   -4.6420   -1.4190 c3        1 MOL     -0.370463
    147 H67        -8.5100   -2.2160   -2.6680 hn        1 MOL      0.274670
    148 H68       -10.1780   -2.6780   -1.2250 h1        1 MOL      0.005095
    149 H69       -10.5140   -5.0290   -0.7130 hc        1 MOL      0.109509
    150 H70       -10.0510   -4.5160   -2.4650 hc        1 MOL      0.109509
    151 H71        -8.9800   -5.3810   -1.3310 hc        1 MOL      0.109509
    152 N14        -7.8860   -2.7060    0.9460 n         1 MOL      0.037038
    153 C49        -7.4490   -2.7810    2.3400 c3        1 MOL      0.001108
    154 C50        -8.2630   -1.9280    3.2670 c         1 MOL      0.401415
    155 O20        -8.6550   -2.4270    4.2990 o         1 MOL     -0.505801
    156 C51        -5.9940   -2.4760    2.5210 c3        1 MOL      0.303101
    157 C52        -5.3260   -3.3660    3.6200 c3        1 MOL     -0.065111
    158 C53        -5.0500   -4.6910    2.9950 c         1 MOL      0.588526
    159 O21        -6.0390   -5.4520    2.7680 o         1 MOL     -0.659660
    160 O22        -3.9080   -4.9300    2.5600 o         1 MOL     -0.659660
    161 H72        -7.1660   -2.6250    0.2430 hn        1 MOL      0.032944
    162 H73        -7.5630   -3.8200    2.6570 h1        1 MOL      0.111042
    163 H74        -5.8560   -1.4520    2.8710 hc        1 MOL     -0.056376
    164 H75        -5.4700   -2.6040    1.5750 hc        1 MOL     -0.056376
    165 H76        -5.9670   -3.4150    4.5060 hc        1 MOL     -0.043694
    166 H77        -4.4310   -2.8120    3.8870 hc        1 MOL     -0.043694
    167 N15        -8.7080   -0.7330    2.8680 n         1 MOL     -0.182177
    168 C54        -9.6400   -0.0190    3.6800 c3        1 MOL     -0.175873
    169 H78       -10.0040   -0.6720    4.4740 h1        1 MOL      0.079220
    170 H79        -9.1500    0.8490    4.1200 h1        1 MOL      0.079220
    171 H80       -10.4800    0.3090    3.0670 h1        1 MOL      0.079220
    172 H81        -8.6000   -0.4300    1.9140 hn        1 MOL      0.110907
    173 Ca1         0.7660   -4.6530   -2.6660 Ca        1 MOL      1.761335
    174 O23        -0.1680   -5.8530   -4.9710 oh        1 MOL     -0.820462
    175 O24        -1.0710   -2.6330   -2.4100 oh        1 MOL     -0.820462
    176 H82        -0.9740   -5.6430   -5.4500 ho        1 MOL      0.414185
    177 H83        -0.8920   -1.7680   -2.7600 ho        1 MOL      0.414185
    178 H84        -0.0700   -6.7950   -5.0840 ho        1 MOL      0.414185
    179 H85        -1.7290   -2.5000   -1.7280 ho        1 MOL      0.414185
    180 O25         0.7990   -7.2770   -2.1910 oh        1 MOL     -0.820462
    181 H86         0.6130   -8.2100   -2.1690 ho        1 MOL      0.414185
    182 H87         1.7060   -7.2030   -1.8990 ho        1 MOL      0.414185
    183 O26        -1.9130   -5.5920   -2.1680 oh        1 MOL     -0.820462
    184 H88        -2.5590   -5.8940   -2.8050 ho        1 MOL      0.414185
    185 H89        -2.4320   -5.3380   -1.4050 ho        1 MOL      0.414185
    186 O27         0.1810   -4.4060   -0.2100 oh        1 MOL     -0.820462
    187 H90        -0.2960   -3.7760    0.3350 ho        1 MOL      0.414185
    188 H91         0.9750   -4.6010    0.2800 ho        1 MOL      0.414185
    189 O28         1.1320   -3.0940   -4.7540 oh        1 MOL     -0.820462
    190 H92         1.2100   -3.5850   -5.5710 ho        1 MOL      0.414185
    191 H93         1.7970   -2.4050   -4.8150 ho        1 MOL      0.414185
    192 O29         2.9010   -5.5230   -4.1020 oh        1 MOL     -0.820462
    193 H94         3.1790   -5.4000   -5.0120 ho        1 MOL      0.414185
    194 H95         3.3290   -6.3460   -3.8350 ho        1 MOL      0.414185
@<TRIPOS>BOND
     1    1    2 1   
     2    1    4 1   
     3    1    5 1   
     4    1    6 1   
     5    2    3 2   
     6    2    7 1   
     7    7    8 1   
     8    7   15 1   
     9    8    9 1   
    10    8   11 1   
    11    8   16 1   
    12    9   10 2   
    13    9   19 1   
    14   11   12 1   
    15   11   17 1   
    16   11   18 1   
    17   12   13 1   
    18   12   14 1   
    19   19   20 1   
    20   19   28 1   
    21   20   21 1   
    22   20   23 1   
    23   20   29 1   
    24   21   22 2   
    25   21   41 1   
    26   23   24 1   
    27   23   30 1   
    28   23   31 1   
    29   24   25 1   
    30   24   32 1   
    31   24   33 1   
    32   25   26 1   
    33   25   34 1   
    34   25   35 1   
    35   26   27 1   
    36   26   36 1   
    37   26   37 1   
    38   27   38 1   
    39   27   39 1   
    40   27   40 1   
    41   41   42 1   
    42   41   49 1   
    43   42   43 1   
    44   42   45 1   
    45   42   50 1   
    46   43   44 2   
    47   43   53 1   
    48   45   46 1   
    49   45   51 1   
    50   45   52 1   
    51   46   47 1   
    52   46   48 1   
    53   53   54 1   
    54   53   57 1   
    55   54   55 1   
    56   54   58 1   
    57   54   59 1   
    58   55   56 2   
    59   55   60 1   
    60   60   61 1   
    61   60   68 1   
    62   61   62 1   
    63   61   64 1   
    64   61   69 1   
    65   62   63 2   
    66   62   74 1   
    67   64   65 1   
    68   64   70 1   
    69   64   71 1   
    70   65   66 1   
    71   65   67 2   
    72   66   72 1   
    73   66   73 1   
    74   74   75 1   
    75   74   78 1   
    76   75   76 1   
    77   75   79 1   
    78   75   80 1   
    79   76   77 2   
    80   76   81 1   
    81   81   82 1   
    82   81   93 1   
    83   82   83 1   
    84   82   85 1   
    85   82   94 1   
    86   83   84 2   
    87   83  102 1   
    88   85   86 1   
    89   85   95 1   
    90   85   96 1   
    91   86   87 ar  
    92   86   88 ar  
    93   87   89 ar  
    94   87   97 1   
    95   88   90 ar  
    96   88   98 1   
    97   89   91 ar  
    98   89   99 1   
    99   90   91 ar  
   100   90  100 1   
   101   91   92 1   
   102   92  101 1   
   103  102  103 1   
   104  102  110 1   
   105  103  104 1   
   106  103  106 1   
   107  103  111 1   
   108  104  105 2   
   109  104  121 1   
   110  106  107 1   
   111  106  108 1   
   112  106  112 1   
   113  107  109 1   
   114  107  113 1   
   115  107  114 1   
   116  108  115 1   
   117  108  116 1   
   118  108  117 1   
   119  109  118 1   
   120  109  119 1   
   121  109  120 1   
   122  121  122 1   
   123  121  127 1   
   124  122  123 1   
   125  122  125 1   
   126  122  128 1   
   127  123  124 2   
   128  123  132 1   
   129  125  126 1   
   130  125  129 1   
   131  125  130 1   
   132  126  131 1   
   133  132  133 1   
   134  132  137 1   
   135  133  134 1   
   136  133  136 1   
   137  133  138 1   
   138  134  135 2   
   139  134  142 1   
   140  136  139 1   
   141  136  140 1   
   142  136  141 1   
   143  142  143 1   
   144  142  147 1   
   145  143  144 1   
   146  143  146 1   
   147  143  148 1   
   148  144  145 2   
   149  144  152 1   
   150  146  149 1   
   151  146  150 1   
   152  146  151 1   
   153  152  153 1   
   154  152  161 1   
   155  153  154 1   
   156  153  156 1   
   157  153  162 1   
   158  154  155 2   
   159  154  167 1   
   160  156  157 1   
   161  156  163 1   
   162  156  164 1   
   163  157  158 1   
   164  157  165 1   
   165  157  166 1   
   166  158  159 1   
   167  158  160 1   
   168  167  168 1   
   169  167  172 1   
   170  168  169 1   
   171  168  170 1   
   172  168  171 1   
   173  174  176 1   
   174  174  178 1   
   175  175  177 1   
   176  175  179 1   
   177  180  181 1   
   178  180  182 1   
   179  183  184 1   
   180  183  185 1   
   181  186  187 1   
   182  186  188 1   
   183  189  190 1   
   184  189  191 1   
   185  192  193 1   
   186  192  194 1   
@<TRIPOS>SUBSTRUCTURE
     1 MOL         1 TEMP              0 ****  ****    0 ROOT
