@<TRIPOS>MOLECULE
MOL
  178   175     1     0     0
SMALL
resp


@<TRIPOS>ATOM
      1 C1         -2.4350   -5.3650   -2.2950 c3        1 MOL     -0.438018
      2 C2         -3.8160   -5.5850   -1.7530 c         1 MOL      0.754998
      3 O1         -3.9810   -6.3540   -0.8170 o         1 MOL     -0.603274
      4 H1         -2.4690   -5.3610   -3.3840 hc        1 MOL      0.102890
      5 H2         -2.0530   -4.4080   -1.9400 hc        1 MOL      0.102890
      6 H3         -1.7790   -6.1670   -1.9550 hc        1 MOL      0.102890
      7 N1         -4.7460   -4.8630   -2.2920 n         1 MOL     -0.654907
      8 C3         -6.1110   -4.7000   -1.8560 c3        1 MOL      0.278675
      9 C4         -5.9900   -3.7520   -0.5690 c         1 MOL      0.606473
     10 O2         -5.7500   -2.5430   -0.7790 o         1 MOL     -0.566480
     11 C5         -7.0170   -4.0220   -2.9320 c3        1 MOL     -0.268808
     12 C6         -8.4920   -3.9020   -2.5200 c         1 MOL      0.774629
     13 O3         -9.3480   -3.7080   -3.4380 o         1 MOL     -0.756053
     14 O4         -8.7620   -4.0460   -1.3290 o         1 MOL     -0.756053
     15 H4         -4.5120   -4.3310   -3.1120 hn        1 MOL      0.307275
     16 H5         -6.4120   -5.7160   -1.5790 h1        1 MOL      0.012217
     17 H6         -7.0720   -4.6600   -3.8080 hc        1 MOL      0.024053
     18 H7         -6.6500   -3.0530   -3.2560 hc        1 MOL      0.024053
     19 N2         -6.1110   -4.3210    0.6580 n         1 MOL     -0.593856
     20 C7         -5.6810   -3.6030    1.8740 c3        1 MOL      0.559504
     21 C8         -4.1900   -3.8950    2.1600 c         1 MOL      0.313307
     22 O5         -3.7250   -4.9950    1.8650 o         1 MOL     -0.474293
     23 C9         -6.6640   -3.8920    3.0370 c3        1 MOL     -0.373844
     24 H8         -5.9610   -5.3170    0.7020 hn        1 MOL      0.289126
     25 H9         -5.7890   -2.5240    1.7720 h1        1 MOL     -0.016140
     26 H10        -6.7670   -4.9650    3.2330 hc        1 MOL      0.073648
     27 H11        -6.4700   -3.2910    3.9260 hc        1 MOL      0.073648
     28 H12        -7.6570   -3.6140    2.6700 hc        1 MOL      0.073648
     29 N3         -3.3970   -3.0390    2.8760 n         1 MOL     -0.350482
     30 C10        -3.7000   -1.7420    3.5080 c3        1 MOL     -0.035811
     31 C11        -3.8340   -0.6020    2.5170 c         1 MOL      0.537205
     32 O6         -2.9050   -0.3320    1.8720 o         1 MOL     -0.527458
     33 C12        -2.6170   -1.3840    4.5210 c3        1 MOL     -0.336274
     34 C13        -1.1910   -1.6270    3.9850 c         1 MOL      0.713870
     35 O7         -0.5950   -0.6040    3.6110 o         1 MOL     -0.674757
     36 O8         -0.6810   -2.7310    3.6840 o         1 MOL     -0.674757
     37 H13        -2.4160   -3.2560    2.9620 hn        1 MOL      0.305792
     38 H14        -4.6200   -1.8350    4.0990 h1        1 MOL      0.072503
     39 H15        -2.7540   -2.0260    5.3900 hc        1 MOL      0.074255
     40 H16        -2.6740   -0.3360    4.8170 hc        1 MOL      0.074255
     41 N4         -4.9800    0.1320    2.5130 n         1 MOL     -0.428878
     42 C14        -5.3640    1.1220    1.4540 c3        1 MOL      0.084441
     43 C15        -6.7960    0.8110    0.8430 c         1 MOL      0.597452
     44 O9         -7.3940   -0.1510    1.3220 o         1 MOL     -0.509563
     45 H17        -5.6990   -0.0220    3.1990 hn        1 MOL      0.264491
     46 H18        -4.6350    1.0690    0.6350 h1        1 MOL      0.014863
     47 H19        -5.3530    2.1360    1.8420 h1        1 MOL      0.014863
     48 N5         -7.3700    1.5970   -0.0910 n         1 MOL     -0.502689
     49 C16        -6.7920    2.7740   -0.7530 c3        1 MOL      0.021712
     50 C17        -5.8040    2.4760   -1.9090 c         1 MOL      0.620304
     51 O10        -6.0380    1.6530   -2.7990 o         1 MOL     -0.500002
     52 C18        -7.9210    3.6920   -1.2500 c3        1 MOL     -0.359437
     53 C19        -8.9140    4.1080   -0.2050 c         1 MOL      0.742914
     54 N6        -10.1450    3.6830   -0.2600 n         1 MOL     -0.828335
     55 O11        -8.6670    4.7840    0.7430 o         1 MOL     -0.577761
     56 H20        -8.3560    1.4100   -0.1930 hn        1 MOL      0.326769
     57 H21        -6.2920    3.3780    0.0040 h1        1 MOL      0.046546
     58 H22        -8.3910    3.2580   -2.1300 hc        1 MOL      0.110430
     59 H23        -7.5060    4.6260   -1.6200 hc        1 MOL      0.110430
     60 H24       -10.4520    3.1410   -1.0500 hn        1 MOL      0.382283
     61 H25       -10.7020    3.8700    0.5720 hn        1 MOL      0.382283
     62 N7         -4.6760    3.1770   -1.9640 n         1 MOL     -0.324479
     63 C20        -3.6580    2.8880   -3.0000 c3        1 MOL     -0.430029
     64 C21        -2.2870    3.5100   -2.8070 c         1 MOL      0.716172
     65 O12        -1.4820    3.3820   -3.7650 o         1 MOL     -0.559207
     66 H26        -4.4860    3.8060   -1.1950 hn        1 MOL      0.161148
     67 H27        -4.0630    3.1030   -3.9910 h1        1 MOL      0.207681
     68 H28        -3.4900    1.8190   -2.9270 h1        1 MOL      0.207681
     69 N8         -1.9490    4.2070   -1.7070 n         1 MOL     -0.548478
     70 C22        -0.5660    4.7420   -1.6110 c3        1 MOL     -0.085222
     71 C23         0.5210    3.7650   -1.1600 c         1 MOL      0.821317
     72 O13         0.3480    2.7520   -0.5050 o         1 MOL     -0.647493
     73 C24        -0.5180    5.9920   -0.6480 c3        1 MOL      0.404512
     74 C25        -1.3900    7.1760   -1.0990 c3        1 MOL     -0.326313
     75 O14        -0.7920    5.5780    0.7040 oh        1 MOL     -0.754494
     76 H29        -2.6210    4.6360   -1.0850 hn        1 MOL      0.393811
     77 H30        -0.1990    5.0710   -2.5840 h1        1 MOL      0.064827
     78 H31         0.5290    6.2980   -0.6550 h1        1 MOL      0.005840
     79 H32        -0.4050    6.2140    1.3060 ho        1 MOL      0.480961
     80 H33        -2.4310    6.8640   -1.2130 hc        1 MOL      0.081763
     81 H34        -1.2170    7.9910   -0.3940 hc        1 MOL      0.081763
     82 H35        -1.0550    7.5730   -2.0630 hc        1 MOL      0.081763
     83 N9          1.6960    4.1180   -1.5770 n         1 MOL     -0.568415
     84 C26         2.9040    3.3600   -1.4520 c3        1 MOL     -0.037952
     85 C27         3.4750    3.6270   -0.0470 c         1 MOL      0.537505
     86 O15         3.6710    4.8200    0.3340 o         1 MOL     -0.564162
     87 C28         3.9300    3.8050   -2.5660 c3        1 MOL      0.260858
     88 C29         5.2150    3.0690   -2.4780 c3        1 MOL      0.008900
     89 C30         3.4940    3.7330   -4.1420 c3        1 MOL     -0.544254
     90 C31         5.1690    1.5300   -2.5090 c3        1 MOL     -0.235889
     91 H36         1.8100    4.9350   -2.1540 hn        1 MOL      0.288461
     92 H37         2.7500    2.2820   -1.5670 h1        1 MOL      0.110055
     93 H38         4.1410    4.8520   -2.3250 hc        1 MOL     -0.030870
     94 H39         5.6800    3.3690   -1.5380 hc        1 MOL     -0.007654
     95 H40         5.9120    3.4150   -3.2430 hc        1 MOL     -0.007654
     96 H41         2.9040    4.6130   -4.3780 hc        1 MOL      0.139330
     97 H42         4.3510    3.6450   -4.8160 hc        1 MOL      0.139330
     98 H43         2.9110    2.8200   -4.2330 hc        1 MOL      0.139330
     99 H44         6.1920    1.1510   -2.5990 hc        1 MOL      0.065073
    100 H45         4.7680    1.1430   -1.5700 hc        1 MOL      0.065073
    101 H46         4.6390    1.2420   -3.4120 hc        1 MOL      0.065073
    102 N10         3.8900    2.5900    0.6760 n         1 MOL     -0.351772
    103 C32         4.6050    2.5970    1.9960 c3        1 MOL     -0.045568
    104 C33         5.8850    1.7690    1.9650 c         1 MOL      0.570911
    105 O16         6.7020    1.9110    2.8200 o         1 MOL     -0.562336
    106 C34         3.6620    2.1400    3.0500 c3        1 MOL     -0.188336
    107 C35         2.2500    2.6900    3.0520 c         1 MOL      0.769926
    108 O17         1.1850    2.0300    3.0050 o         1 MOL     -0.725140
    109 O18         2.1530    3.9010    3.3880 o         1 MOL     -0.725140
    110 H47         3.6060    1.6780    0.3450 hn        1 MOL      0.174212
    111 H48         4.9700    3.6040    2.2010 h1        1 MOL      0.102350
    112 H49         4.1560    2.3220    4.0030 hc        1 MOL      0.064733
    113 H50         3.5980    1.0690    2.8480 hc        1 MOL      0.064733
    114 N11         6.0460    0.8970    0.9880 n         1 MOL     -0.519325
    115 C36         7.1440   -0.1040    0.8000 c3        1 MOL      0.367588
    116 C37         6.6620   -1.4700    0.3030 c         1 MOL      0.090539
    117 O19         6.8310   -1.8660   -0.9100 o         1 MOL     -0.393350
    118 C38         8.1950    0.5300   -0.0790 c3        1 MOL     -0.453336
    119 C39         9.4280   -0.3250   -0.3280 ca        1 MOL      0.191428
    120 C40         9.9110   -0.5470   -1.5980 ca        1 MOL     -0.148275
    121 C41        10.1370   -0.8430    0.7790 ca        1 MOL     -0.148275
    122 C42        11.1410   -1.2820   -1.7370 ca        1 MOL     -0.164524
    123 C43        11.3030   -1.5780    0.6610 ca        1 MOL     -0.164524
    124 C44        11.7900   -1.7930   -0.6130 ca        1 MOL     -0.082184
    125 H51         5.1490    0.7400    0.5360 hn        1 MOL      0.436471
    126 H52         7.5510   -0.2700    1.8040 h1        1 MOL      0.018309
    127 H53         8.6330    1.3310    0.5300 hc        1 MOL      0.135310
    128 H54         7.8930    0.9490   -1.0370 hc        1 MOL      0.135310
    129 H55         9.3240   -0.1550   -2.4190 ha        1 MOL      0.115326
    130 H56         9.7900   -0.6320    1.7810 ha        1 MOL      0.115326
    131 H57        11.4960   -1.4490   -2.7450 ha        1 MOL      0.117096
    132 H58        11.7130   -2.0510    1.5420 ha        1 MOL      0.117096
    133 H59        12.6610   -2.4030   -0.7800 ha        1 MOL      0.083988
    134 N12         5.9430   -2.2730    1.1410 n         1 MOL      0.013643
    135 C45         5.5310   -3.6470    0.9150 c3        1 MOL     -0.006560
    136 C46         4.4650   -3.8080   -0.2150 c         1 MOL      0.229781
    137 O20         4.0570   -4.9480   -0.5130 o         1 MOL     -0.506033
    138 C47         4.9900   -4.1690    2.2040 c3        1 MOL     -0.042947
    139 C48         4.6930   -2.9520    3.0810 c3        1 MOL     -0.142189
    140 C49         5.5030   -1.8160    2.4530 c3        1 MOL     -0.073131
    141 H60         6.4630   -4.1560    0.6540 h1        1 MOL      0.082881
    142 H61         4.0810   -4.7540    2.0520 hc        1 MOL      0.051367
    143 H62         5.8160   -4.7470    2.6190 hc        1 MOL      0.051367
    144 H63         3.6430   -2.6950    2.9490 hc        1 MOL      0.081677
    145 H64         5.0730   -3.0910    4.1010 hc        1 MOL      0.081677
    146 H65         4.7960   -0.9860    2.3330 h1        1 MOL      0.058743
    147 H66         6.2860   -1.3840    3.0810 h1        1 MOL      0.058743
    148 N13         3.8340   -2.7610   -0.7620 n         1 MOL      0.053769
    149 C50         2.9170   -2.7710   -1.8940 c3        1 MOL     -0.162654
    150 C51         3.6670   -3.4500   -3.0840 c         1 MOL      0.455772
    151 O21         3.1000   -4.0800   -4.0010 o         1 MOL     -0.552031
    152 C52         2.6750   -1.2920   -2.2340 c3        1 MOL      0.116023
    153 C53         1.6440   -0.5270   -1.3720 c3        1 MOL     -0.267951
    154 C54         2.0660   -0.2490    0.0520 c         1 MOL      0.907220
    155 O22         1.1710   -0.1410    0.8580 o         1 MOL     -0.763112
    156 O23         3.2680   -0.2270    0.3500 o         1 MOL     -0.763112
    157 H67         3.9710   -1.8480   -0.3650 hn        1 MOL      0.212231
    158 H68         1.9900   -3.2940   -1.6340 h1        1 MOL      0.121363
    159 H69         2.4480   -1.2960   -3.3000 hc        1 MOL     -0.048186
    160 H70         3.5950   -0.7160   -2.1240 hc        1 MOL     -0.048186
    161 H71         0.7610   -1.1700   -1.3070 hc        1 MOL      0.076942
    162 H72         1.3550    0.3730   -1.9000 hc        1 MOL      0.076942
    163 N14         4.9970   -3.2730   -3.1390 n         1 MOL     -0.083484
    164 C55         5.9890   -3.7560   -4.1230 c3        1 MOL     -0.245664
    165 H73         5.5120   -3.8610   -5.0980 h1        1 MOL      0.096698
    166 H74         6.8090   -3.0420   -4.1950 h1        1 MOL      0.096698
    167 H75         6.3780   -4.7230   -3.8040 h1        1 MOL      0.096698
    168 H76         5.3020   -2.6480   -2.4100 hn        1 MOL      0.061081
    169 Ca1        -0.7640    1.1540    1.7310 Ca        1 MOL      1.703912
    170 O24        -1.7230    2.5540    3.9950 oh        1 MOL     -0.799749
    171 O25        -2.2900    3.3810    1.2810 oh        1 MOL     -0.799749
    172 H77        -2.5520    2.9270    3.7170 ho        1 MOL      0.383563
    173 H78        -1.7910    4.1840    1.1360 ho        1 MOL      0.383563
    174 H79        -1.1120    3.2880    3.9700 ho        1 MOL      0.383563
    175 H80        -3.1450    3.6720    1.5960 ho        1 MOL      0.383563
    176 O26        -1.6920    0.5820   -0.7020 oh        1 MOL     -0.799749
    177 H81        -1.2650    0.1660   -1.4490 ho        1 MOL      0.383563
    178 H82        -2.6270    0.4930   -0.8720 ho        1 MOL      0.383563
@<TRIPOS>BOND
     1    1    2 1   
     2    1    4 1   
     3    1    5 1   
     4    1    6 1   
     5    2    3 2   
     6    2    7 1   
     7    7    8 1   
     8    7   15 1   
     9    8    9 1   
    10    8   11 1   
    11    8   16 1   
    12    9   10 2   
    13    9   19 1   
    14   11   12 1   
    15   11   17 1   
    16   11   18 1   
    17   12   13 1   
    18   12   14 1   
    19   19   20 1   
    20   19   24 1   
    21   20   21 1   
    22   20   23 1   
    23   20   25 1   
    24   21   22 2   
    25   21   29 1   
    26   23   26 1   
    27   23   27 1   
    28   23   28 1   
    29   29   30 1   
    30   29   37 1   
    31   30   31 1   
    32   30   33 1   
    33   30   38 1   
    34   31   32 2   
    35   31   41 1   
    36   33   34 1   
    37   33   39 1   
    38   33   40 1   
    39   34   35 1   
    40   34   36 1   
    41   41   42 1   
    42   41   45 1   
    43   42   43 1   
    44   42   46 1   
    45   42   47 1   
    46   43   44 2   
    47   43   48 1   
    48   48   49 1   
    49   48   56 1   
    50   49   50 1   
    51   49   52 1   
    52   49   57 1   
    53   50   51 2   
    54   50   62 1   
    55   52   53 1   
    56   52   58 1   
    57   52   59 1   
    58   53   54 1   
    59   53   55 2   
    60   54   60 1   
    61   54   61 1   
    62   62   63 1   
    63   62   66 1   
    64   63   64 1   
    65   63   67 1   
    66   63   68 1   
    67   64   65 2   
    68   64   69 1   
    69   69   70 1   
    70   69   76 1   
    71   70   71 1   
    72   70   73 1   
    73   70   77 1   
    74   71   72 2   
    75   71   83 1   
    76   73   74 1   
    77   73   75 1   
    78   73   78 1   
    79   74   80 1   
    80   74   81 1   
    81   74   82 1   
    82   75   79 1   
    83   83   84 1   
    84   83   91 1   
    85   84   85 1   
    86   84   87 1   
    87   84   92 1   
    88   85   86 2   
    89   85  102 1   
    90   87   88 1   
    91   87   89 1   
    92   87   93 1   
    93   88   90 1   
    94   88   94 1   
    95   88   95 1   
    96   89   96 1   
    97   89   97 1   
    98   89   98 1   
    99   90   99 1   
   100   90  100 1   
   101   90  101 1   
   102  102  103 1   
   103  102  110 1   
   104  103  104 1   
   105  103  106 1   
   106  103  111 1   
   107  104  105 2   
   108  104  114 1   
   109  106  107 1   
   110  106  112 1   
   111  106  113 1   
   112  107  108 1   
   113  107  109 1   
   114  114  115 1   
   115  114  125 1   
   116  115  116 1   
   117  115  118 1   
   118  115  126 1   
   119  116  117 2   
   120  116  134 1   
   121  118  119 1   
   122  118  127 1   
   123  118  128 1   
   124  119  120 ar  
   125  119  121 ar  
   126  120  122 ar  
   127  120  129 1   
   128  121  123 ar  
   129  121  130 1   
   130  122  124 ar  
   131  122  131 1   
   132  123  124 ar  
   133  123  132 1   
   134  124  133 1   
   135  134  135 1   
   136  134  140 1   
   137  135  136 1   
   138  135  138 1   
   139  135  141 1   
   140  136  137 2   
   141  136  148 1   
   142  138  139 1   
   143  138  142 1   
   144  138  143 1   
   145  139  140 1   
   146  139  144 1   
   147  139  145 1   
   148  140  146 1   
   149  140  147 1   
   150  148  149 1   
   151  148  157 1   
   152  149  150 1   
   153  149  152 1   
   154  149  158 1   
   155  150  151 2   
   156  150  163 1   
   157  152  153 1   
   158  152  159 1   
   159  152  160 1   
   160  153  154 1   
   161  153  161 1   
   162  153  162 1   
   163  154  155 1   
   164  154  156 1   
   165  163  164 1   
   166  163  168 1   
   167  164  165 1   
   168  164  166 1   
   169  164  167 1   
   170  170  172 1   
   171  170  174 1   
   172  171  173 1   
   173  171  175 1   
   174  176  177 1   
   175  176  178 1   
@<TRIPOS>SUBSTRUCTURE
     1 MOL         1 TEMP              0 ****  ****    0 ROOT
