@<TRIPOS>MOLECULE
MOL
  181   177     1     0     0
SMALL
resp


@<TRIPOS>ATOM
      1 C1          3.6920   -1.2980    3.8520 c3        1 MOL     -0.545945
      2 C2          5.1510   -0.7350    3.4710 c         1 MOL      0.676749
      3 O1          5.5780    0.3860    3.6290 o         1 MOL     -0.606149
      4 H1          3.6350   -1.4600    4.9280 hc        1 MOL      0.152649
      5 H2          2.9340   -0.5740    3.5520 hc        1 MOL      0.152649
      6 H3          3.5190   -2.2410    3.3340 hc        1 MOL      0.152649
      7 N1          6.0080   -1.6980    3.0400 n         1 MOL     -0.433712
      8 C3          7.4290   -1.6930    2.9160 c3        1 MOL      0.053717
      9 C4          7.8770   -1.2240    1.4700 c         1 MOL      0.473128
     10 O2          8.6430   -1.9150    0.8470 o         1 MOL     -0.519668
     11 C5          8.1350   -2.9710    3.4600 c3        1 MOL     -0.094102
     12 C6          7.5990   -4.1620    2.7490 c         1 MOL      0.642368
     13 O3          8.3840   -5.1330    2.6550 o         1 MOL     -0.668187
     14 O4          6.3970   -4.2390    2.2860 o         1 MOL     -0.668187
     15 H4          5.6020   -2.6010    2.8690 hn        1 MOL      0.233196
     16 H5          7.8800   -0.9330    3.5420 h1        1 MOL      0.026915
     17 H6          7.9740   -3.0830    4.5250 hc        1 MOL      0.031158
     18 H7          9.2270   -2.9320    3.4290 hc        1 MOL      0.031158
     19 N2          7.4010   -0.0760    1.0060 n         1 MOL     -0.383382
     20 C7          7.5240    0.4000   -0.3580 c3        1 MOL      0.198068
     21 C8          6.0700    0.6610   -0.9680 c         1 MOL      0.633073
     22 O5          5.0800    0.9410   -0.2500 o         1 MOL     -0.568049
     23 C9          8.4150    1.6860   -0.3960 c3        1 MOL     -0.380136
     24 H8          6.7930    0.4520    1.6200 hn        1 MOL      0.242433
     25 H9          8.0130   -0.4000   -0.9040 h1        1 MOL      0.036064
     26 H10         8.6020    2.0550   -1.4060 hc        1 MOL      0.097200
     27 H11         8.0630    2.4580    0.2920 hc        1 MOL      0.097200
     28 H12         9.3250    1.4480    0.1430 hc        1 MOL      0.097200
     29 N3          5.9550    0.5740   -2.2720 n         1 MOL     -0.586175
     30 C10         4.7030    0.7640   -3.0020 c3        1 MOL      0.143212
     31 C11         4.7570    2.2050   -3.6430 c         1 MOL      0.546563
     32 O6          4.1500    2.4920   -4.6360 o         1 MOL     -0.532503
     33 C12         4.4800   -0.3190   -4.0350 c3        1 MOL     -0.423861
     34 C13         4.1740   -1.6840   -3.4170 c         1 MOL      1.004661
     35 O7          4.8690   -2.6850   -3.7900 o         1 MOL     -0.806017
     36 O8          3.2240   -1.8910   -2.6600 o         1 MOL     -0.806017
     37 H13         6.7310    0.2000   -2.8040 hn        1 MOL      0.298017
     38 H14         3.8900    0.8660   -2.2840 h1        1 MOL      0.083162
     39 H15         5.3320   -0.4460   -4.6890 hc        1 MOL      0.099550
     40 H16         3.6990   -0.0730   -4.7590 hc        1 MOL      0.099550
     41 N4          5.3520    3.1760   -2.9330 n         1 MOL     -0.323919
     42 C14         5.3790    4.6530   -3.3510 c3        1 MOL     -0.037645
     43 C15         4.0720    5.4690   -3.3460 c         1 MOL      0.520539
     44 O9          4.0430    6.5460   -3.9220 o         1 MOL     -0.560406
     45 H17         6.0370    2.9350   -2.2400 hn        1 MOL      0.201360
     46 H18         5.9550    4.7930   -4.2710 h1        1 MOL      0.059858
     47 H19         5.9810    5.1320   -2.5760 h1        1 MOL      0.059858
     48 N5          3.0720    5.0180   -2.6400 n         1 MOL     -0.313106
     49 C16         1.7230    5.5450   -2.5120 c3        1 MOL      0.123509
     50 C17         1.3090    5.3010   -1.0820 c         1 MOL      0.435678
     51 O10         1.5710    4.2460   -0.4960 o         1 MOL     -0.429545
     52 C18         0.8560    4.7540   -3.4130 c3        1 MOL     -0.329180
     53 C19        -0.4640    5.3750   -3.8150 c         1 MOL      0.628493
     54 N6         -1.5350    4.8700   -3.3030 n         1 MOL     -0.733791
     55 O11        -0.5060    6.3770   -4.5680 o         1 MOL     -0.571972
     56 H20         3.3360    4.2400   -2.0470 hn        1 MOL      0.175812
     57 H21         1.6950    6.6160   -2.7200 h1        1 MOL      0.033689
     58 H22         0.6840    3.7670   -2.9860 hc        1 MOL      0.140959
     59 H23         1.4190    4.7520   -4.3460 hc        1 MOL      0.140959
     60 H24        -1.4340    4.0790   -2.6840 hn        1 MOL      0.355954
     61 H25        -2.3690    5.4140   -3.1180 hn        1 MOL      0.355954
     62 N7          0.5600    6.3060   -0.6550 n         1 MOL     -0.398960
     63 C20         0.0820    6.4030    0.6740 c3        1 MOL     -0.122429
     64 C21        -1.4720    6.0780    0.7710 c         1 MOL      0.532219
     65 O12        -2.0850    5.4740   -0.1830 o         1 MOL     -0.481670
     66 H26         0.3060    7.0460   -1.2940 hn        1 MOL      0.317679
     67 H27         0.1040    7.4850    0.7690 h1        1 MOL      0.100140
     68 H28         0.7770    5.9860    1.4050 h1        1 MOL      0.100140
     69 N8         -2.1040    6.6120    1.8420 n         1 MOL     -0.317216
     70 C22        -3.5630    6.4720    2.0660 c3        1 MOL     -0.361971
     71 C23        -3.9310    4.9470    2.2630 c         1 MOL      0.516536
     72 O13        -5.0550    4.5740    2.0490 o         1 MOL     -0.529426
     73 C24        -4.1330    7.3650    3.2010 c3        1 MOL      0.496920
     74 C25        -3.5440    6.9750    4.5900 c3        1 MOL     -0.429399
     75 O14        -3.7190    8.7450    3.0850 oh        1 MOL     -0.639045
     76 H29        -1.6280    7.2720    2.4390 hn        1 MOL      0.212477
     77 H30        -4.0730    6.7840    1.1500 h1        1 MOL      0.163149
     78 H31        -5.2210    7.3680    3.1160 h1        1 MOL      0.056468
     79 H32        -2.7520    8.7840    3.1480 ho        1 MOL      0.392123
     80 H33        -2.5060    6.6280    4.5000 hc        1 MOL      0.100218
     81 H34        -3.5450    7.9040    5.1740 hc        1 MOL      0.100218
     82 H35        -4.0710    6.2330    5.1860 hc        1 MOL      0.100218
     83 N9         -2.9190    4.1720    2.6860 n         1 MOL     -0.247658
     84 C26        -2.9930    2.7490    3.1650 c3        1 MOL      0.012008
     85 C27        -2.0880    1.9090    2.2100 c         1 MOL      0.459551
     86 O15        -0.8810    2.1010    2.1250 o         1 MOL     -0.498896
     87 C28        -2.5870    2.6570    4.6680 c3        1 MOL      0.215804
     88 C29        -3.2380    3.5640    5.6840 c3        1 MOL     -0.071579
     89 C30        -2.7900    1.1970    5.1200 c3        1 MOL     -0.126903
     90 C31        -4.7510    3.6790    5.5720 c3        1 MOL     -0.013205
     91 H36        -2.0320    4.6620    2.7350 hn        1 MOL      0.162477
     92 H37        -4.0420    2.4490    3.1070 h1        1 MOL      0.054238
     93 H38        -1.5290    2.9040    4.6790 hc        1 MOL     -0.009419
     94 H39        -2.7890    4.5560    5.5840 hc        1 MOL      0.015320
     95 H40        -2.9400    3.3650    6.7140 hc        1 MOL      0.015320
     96 H41        -3.7160    0.8440    4.6560 hc        1 MOL      0.016579
     97 H42        -2.0480    0.5840    4.6040 hc        1 MOL      0.016579
     98 H43        -2.7720    1.1150    6.1960 hc        1 MOL      0.016579
     99 H44        -5.2270    2.7040    5.6070 hc        1 MOL      0.000480
    100 H45        -5.1970    4.2600    6.3710 hc        1 MOL      0.000480
    101 H46        -5.1280    4.1850    4.6910 hc        1 MOL      0.000480
    102 N10        -2.6790    0.8200    1.7610 n         1 MOL     -0.503661
    103 C32        -2.0240   -0.1960    0.9290 c3        1 MOL      0.433414
    104 C33        -2.9410   -0.9360   -0.1720 c         1 MOL      0.307702
    105 O16        -2.7620   -2.0730   -0.5710 o         1 MOL     -0.308258
    106 C34        -1.1120   -1.1280    1.7950 c3        1 MOL     -0.229563
    107 C35        -0.0390   -1.8280    0.9230 c         1 MOL      0.554117
    108 O17         0.2010   -1.4530   -0.2190 o         1 MOL     -0.688603
    109 O18         0.5630   -2.8540    1.3090 o         1 MOL     -0.688603
    110 H47        -3.6410    0.5930    1.9640 hn        1 MOL      0.266977
    111 H48        -1.3420    0.3810    0.3070 h1        1 MOL      0.004967
    112 H49        -1.8590   -1.7560    2.2870 hc        1 MOL      0.061486
    113 H50        -0.5760   -0.5920    2.5700 hc        1 MOL      0.061486
    114 N11        -3.9920   -0.2580   -0.5740 n         1 MOL     -0.494135
    115 C36        -4.9320   -0.9470   -1.4350 c3        1 MOL      0.417361
    116 C37        -5.3920   -2.2560   -0.8380 c         1 MOL      0.196618
    117 O19        -5.5690   -2.3440    0.3730 o         1 MOL     -0.501619
    118 C38        -6.0010    0.0570   -1.7050 c3        1 MOL     -0.252858
    119 C39        -7.1830   -0.3150   -2.6010 ca        1 MOL      0.184551
    120 C40        -8.2840   -0.9220   -2.0100 ca        1 MOL     -0.243132
    121 C41        -7.2160    0.0430   -3.9220 ca        1 MOL     -0.243132
    122 C42        -9.4260   -1.3120   -2.7350 ca        1 MOL     -0.076666
    123 C43        -8.3360   -0.3710   -4.6740 ca        1 MOL     -0.076666
    124 C44        -9.4150   -1.0940   -4.1290 ca        1 MOL     -0.125150
    125 H51        -4.2220    0.6890   -0.2760 hn        1 MOL      0.248229
    126 H52        -4.4560   -1.0510   -2.4130 h1        1 MOL     -0.023396
    127 H53        -5.5660    0.9110   -2.2160 hc        1 MOL      0.078175
    128 H54        -6.4170    0.3790   -0.7550 hc        1 MOL      0.078175
    129 H55        -8.3190   -1.1540   -0.9540 ha        1 MOL      0.145414
    130 H56        -6.4100    0.6020   -4.3690 ha        1 MOL      0.145414
    131 H57       -10.3260   -1.7030   -2.3060 ha        1 MOL      0.099553
    132 H58        -8.4220   -0.0450   -5.7020 ha        1 MOL      0.099553
    133 H59       -10.1820   -1.3980   -4.8290 ha        1 MOL      0.098904
    134 N12        -5.5670   -3.3010   -1.7010 n         1 MOL      0.083971
    135 C45        -6.2280   -4.5050   -1.2530 c3        1 MOL     -0.070203
    136 C46        -5.3760   -5.3380   -0.2720 c         1 MOL      0.401426
    137 O20        -5.9600   -6.1540    0.3890 o         1 MOL     -0.505892
    138 C47        -6.4340   -5.3500   -2.5550 c3        1 MOL     -0.155352
    139 C48        -5.3360   -4.8490   -3.4770 c3        1 MOL     -0.017150
    140 C49        -5.2030   -3.3730   -3.0940 c3        1 MOL     -0.098608
    141 H60        -7.1590   -4.2450   -0.7320 h1        1 MOL      0.074141
    142 H61        -6.4280   -6.3940   -2.2430 hc        1 MOL      0.070097
    143 H62        -7.3800   -5.1320   -3.0550 hc        1 MOL      0.070097
    144 H63        -4.3670   -5.2830   -3.2610 hc        1 MOL      0.032519
    145 H64        -5.6430   -4.9490   -4.5220 hc        1 MOL      0.032519
    146 H65        -4.1660   -3.0930   -3.2460 h1        1 MOL      0.051325
    147 H66        -5.8810   -2.7420   -3.6700 h1        1 MOL      0.051325
    148 N13        -4.0310   -5.1070   -0.1660 n         1 MOL     -0.147543
    149 C50        -3.2310   -5.9040    0.7000 c3        1 MOL     -0.181702
    150 C51        -3.5560   -5.7560    2.1800 c         1 MOL      0.418446
    151 O21        -3.4450   -6.7380    2.9210 o         1 MOL     -0.525123
    152 C52        -1.8060   -5.3810    0.4840 c3        1 MOL      0.273970
    153 C53        -1.0740   -5.6890   -0.8200 c3        1 MOL     -0.242962
    154 C54         0.3440   -5.0860   -0.8900 c         1 MOL      0.718925
    155 O22         1.3550   -5.4980   -0.1920 o         1 MOL     -0.727545
    156 O23         0.5770   -4.1800   -1.7010 o         1 MOL     -0.727545
    157 H67        -3.5300   -4.3950   -0.6710 hn        1 MOL      0.207175
    158 H68        -3.2700   -6.9500    0.4050 h1        1 MOL      0.116884
    159 H69        -1.1950   -5.8300    1.2660 hc        1 MOL     -0.040848
    160 H70        -1.7930   -4.3020    0.6290 hc        1 MOL     -0.040848
    161 H71        -1.7330   -5.2520   -1.5600 hc        1 MOL      0.014816
    162 H72        -1.1470   -6.7720   -0.9200 hc        1 MOL      0.014816
    163 N14        -4.0240   -4.5500    2.6480 n         1 MOL     -0.182419
    164 C55        -4.2830   -4.2230    4.0370 c3        1 MOL     -0.199936
    165 H73        -4.0610   -5.0890    4.6610 h1        1 MOL      0.083117
    166 H74        -3.6520   -3.3870    4.3380 h1        1 MOL      0.083117
    167 H75        -5.3320   -3.9500    4.1560 h1        1 MOL      0.083117
    168 H76        -4.1760   -3.8430    1.9450 hn        1 MOL      0.208069
    169 Ca1         2.5730   -3.0880   -0.3800 Ca        1 MOL      1.837588
    170 O24         2.9600   -0.5020    0.0830 oh        1 MOL     -0.879580
    171 H77         3.6230    0.1860    0.0050 ho        1 MOL      0.411001
    172 H78         2.1280   -0.0340    0.0820 ho        1 MOL      0.411001
    173 O25         3.5650   -4.2440    1.6810 oh        1 MOL     -0.879580
    174 H79         3.2510   -4.6250    2.5020 ho        1 MOL      0.411001
    175 H80         4.5100   -4.4020    1.6780 ho        1 MOL      0.411001
    176 O26         5.4260   -3.0080   -0.2840 oh        1 MOL     -0.879580
    177 H81         5.9720   -3.4500    0.3650 ho        1 MOL      0.411001
    178 H82         6.0180   -2.8700   -1.0300 ho        1 MOL      0.411001
    179 O27         3.8790   -4.6900   -2.1950 oh        1 MOL     -0.879580
    180 H83         4.2060   -3.9490   -2.6970 ho        1 MOL      0.411001
    181 H84         4.3490   -5.4480   -2.5380 ho        1 MOL      0.411001
@<TRIPOS>BOND
     1    1    2 1   
     2    1    4 1   
     3    1    5 1   
     4    1    6 1   
     5    2    3 2   
     6    2    7 1   
     7    7    8 1   
     8    7   15 1   
     9    8    9 1   
    10    8   11 1   
    11    8   16 1   
    12    9   10 2   
    13    9   19 1   
    14   11   12 1   
    15   11   17 1   
    16   11   18 1   
    17   12   13 1   
    18   12   14 1   
    19   19   20 1   
    20   19   24 1   
    21   20   21 1   
    22   20   23 1   
    23   20   25 1   
    24   21   22 2   
    25   21   29 1   
    26   23   26 1   
    27   23   27 1   
    28   23   28 1   
    29   29   30 1   
    30   29   37 1   
    31   30   31 1   
    32   30   33 1   
    33   30   38 1   
    34   31   32 2   
    35   31   41 1   
    36   33   34 1   
    37   33   39 1   
    38   33   40 1   
    39   34   35 1   
    40   34   36 1   
    41   41   42 1   
    42   41   45 1   
    43   42   43 1   
    44   42   46 1   
    45   42   47 1   
    46   43   44 2   
    47   43   48 1   
    48   48   49 1   
    49   48   56 1   
    50   49   50 1   
    51   49   52 1   
    52   49   57 1   
    53   50   51 2   
    54   50   62 1   
    55   52   53 1   
    56   52   58 1   
    57   52   59 1   
    58   53   54 1   
    59   53   55 2   
    60   54   60 1   
    61   54   61 1   
    62   62   63 1   
    63   62   66 1   
    64   63   64 1   
    65   63   67 1   
    66   63   68 1   
    67   64   65 2   
    68   64   69 1   
    69   69   70 1   
    70   69   76 1   
    71   70   71 1   
    72   70   73 1   
    73   70   77 1   
    74   71   72 2   
    75   71   83 1   
    76   73   74 1   
    77   73   75 1   
    78   73   78 1   
    79   74   80 1   
    80   74   81 1   
    81   74   82 1   
    82   75   79 1   
    83   83   84 1   
    84   83   91 1   
    85   84   85 1   
    86   84   87 1   
    87   84   92 1   
    88   85   86 2   
    89   85  102 1   
    90   87   88 1   
    91   87   89 1   
    92   87   93 1   
    93   88   90 1   
    94   88   94 1   
    95   88   95 1   
    96   89   96 1   
    97   89   97 1   
    98   89   98 1   
    99   90   99 1   
   100   90  100 1   
   101   90  101 1   
   102  102  103 1   
   103  102  110 1   
   104  103  104 1   
   105  103  106 1   
   106  103  111 1   
   107  104  105 2   
   108  104  114 1   
   109  106  107 1   
   110  106  112 1   
   111  106  113 1   
   112  107  108 1   
   113  107  109 1   
   114  114  115 1   
   115  114  125 1   
   116  115  116 1   
   117  115  118 1   
   118  115  126 1   
   119  116  117 2   
   120  116  134 1   
   121  118  119 1   
   122  118  127 1   
   123  118  128 1   
   124  119  120 ar  
   125  119  121 ar  
   126  120  122 ar  
   127  120  129 1   
   128  121  123 ar  
   129  121  130 1   
   130  122  124 ar  
   131  122  131 1   
   132  123  124 ar  
   133  123  132 1   
   134  124  133 1   
   135  134  135 1   
   136  134  140 1   
   137  135  136 1   
   138  135  138 1   
   139  135  141 1   
   140  136  137 2   
   141  136  148 1   
   142  138  139 1   
   143  138  142 1   
   144  138  143 1   
   145  139  140 1   
   146  139  144 1   
   147  139  145 1   
   148  140  146 1   
   149  140  147 1   
   150  148  149 1   
   151  148  157 1   
   152  149  150 1   
   153  149  152 1   
   154  149  158 1   
   155  150  151 2   
   156  150  163 1   
   157  152  153 1   
   158  152  159 1   
   159  152  160 1   
   160  153  154 1   
   161  153  161 1   
   162  153  162 1   
   163  154  155 1   
   164  154  156 1   
   165  163  164 1   
   166  163  168 1   
   167  164  165 1   
   168  164  166 1   
   169  164  167 1   
   170  170  171 1   
   171  170  172 1   
   172  173  174 1   
   173  173  175 1   
   174  176  177 1   
   175  176  178 1   
   176  179  180 1   
   177  179  181 1   
@<TRIPOS>SUBSTRUCTURE
     1 MOL         1 TEMP              0 ****  ****    0 ROOT
