@<TRIPOS>MOLECULE
MOL
  189   185     1     0     0
SMALL
resp


@<TRIPOS>ATOM
      1 C1         13.0060    4.9480   -2.5160 c3        1 MOL     -0.027835
      2 C2         12.8980    3.7180   -1.6430 c         1 MOL      0.689372
      3 O1         13.9360    3.0590   -1.4490 o         1 MOL     -0.606318
      4 H1         13.9530    5.4510   -2.3180 hc        1 MOL      0.002971
      5 H2         12.9640    4.6540   -3.5650 hc        1 MOL      0.002971
      6 H3         12.1820    5.6250   -2.2940 hc        1 MOL      0.002971
      7 N1         11.7460    3.1900   -1.2290 n         1 MOL     -0.196739
      8 C3         11.6480    2.0710   -0.3080 c3        1 MOL     -0.423441
      9 C4         10.2220    1.4770   -0.3770 c         1 MOL      0.533940
     10 O2          9.1850    2.1720   -0.5140 o         1 MOL     -0.379685
     11 C5         11.9600    2.5590    1.1270 c3        1 MOL     -0.062432
     12 C6         11.3400    3.9330    1.5540 c         1 MOL      0.654803
     13 O3         12.1700    4.7420    2.0180 o         1 MOL     -0.698212
     14 O4         10.2250    4.3650    1.1730 o         1 MOL     -0.698212
     15 H4         10.9300    3.7620   -1.4020 hn        1 MOL      0.093912
     16 H5         12.3910    1.3350   -0.5980 h1        1 MOL      0.156939
     17 H6         13.0390    2.6140    1.2020 hc        1 MOL      0.078395
     18 H7         11.5270    1.8080    1.7840 hc        1 MOL      0.078395
     19 N2         10.1350    0.1190   -0.2850 n         1 MOL     -0.278818
     20 C7          8.9160   -0.6530   -0.5800 c3        1 MOL     -0.077930
     21 C8          7.7140   -0.2140    0.3280 c         1 MOL      0.158993
     22 O5          7.7530   -0.1080    1.5260 o         1 MOL     -0.372480
     23 C9          9.1650   -2.1850   -0.3260 c3        1 MOL     -0.496833
     24 C10         7.9770   -3.0060   -0.8410 c3        1 MOL      0.415224
     25 C11         8.1760   -4.5190   -0.9320 c3        1 MOL     -0.204668
     26 C12         7.1710   -5.1650   -1.8530 c3        1 MOL      0.058894
     27 N3          5.7600   -4.8160   -1.5520 n4        1 MOL     -0.358043
     28 H8         11.0290   -0.3530   -0.3650 hn        1 MOL      0.273147
     29 H9          8.6030   -0.5180   -1.6150 h1        1 MOL      0.093736
     30 H10         9.3870   -2.3010    0.7260 hc        1 MOL      0.160904
     31 H11        10.0430   -2.5820   -0.8520 hc        1 MOL      0.160904
     32 H12         7.7490   -2.7550   -1.8750 hc        1 MOL     -0.017814
     33 H13         7.1200   -2.9200   -0.1700 hc        1 MOL     -0.017814
     34 H14         8.1200   -4.8570    0.0970 hc        1 MOL      0.063357
     35 H15         9.1440   -4.7250   -1.3800 hc        1 MOL      0.063357
     36 H16         7.3060   -6.2490   -1.8420 hx        1 MOL      0.071069
     37 H17         7.4310   -4.8490   -2.8650 hx        1 MOL      0.071069
     38 H18         5.5540   -5.0820   -0.5990 hn        1 MOL      0.323088
     39 H19         5.5340   -3.8360   -1.6980 hn        1 MOL      0.323088
     40 H20         5.1110   -5.3500   -2.1160 hn        1 MOL      0.323088
     41 N4          6.5690   -0.1520   -0.3900 n         1 MOL     -0.116618
     42 C13         5.2280   -0.1470    0.1250 c3        1 MOL      0.314762
     43 C14         4.3540   -1.3310   -0.3830 c         1 MOL      0.291236
     44 O6          4.6970   -1.8880   -1.4280 o         1 MOL     -0.642546
     45 C15         4.5310    1.2130   -0.2380 c3        1 MOL     -0.023304
     46 C16         5.4030    2.4470   -0.0590 c         1 MOL      0.615201
     47 O7          6.0310    2.9400   -1.0350 o         1 MOL     -0.754739
     48 O8          5.6710    2.9480    1.0500 o         1 MOL     -0.754739
     49 H21         6.6650   -0.0940   -1.3940 hn        1 MOL      0.190003
     50 H22         5.2150   -0.3230    1.2030 h1        1 MOL     -0.006202
     51 H23         3.6490    1.2390    0.3880 hc        1 MOL      0.013258
     52 H24         4.2430    1.1480   -1.2890 hc        1 MOL      0.013258
     53 N5          3.3690   -1.7770    0.3660 n         1 MOL     -0.286678
     54 C17         2.9880   -1.3460    1.7010 c3        1 MOL     -0.278243
     55 C18         2.2910   -2.5700    2.3980 c         1 MOL      0.685776
     56 O9          2.5150   -3.7280    2.0230 o         1 MOL     -0.610611
     57 H25         2.8230   -2.5470    0.0050 hn        1 MOL      0.377154
     58 H26         2.2370   -0.5630    1.6330 h1        1 MOL      0.137050
     59 H27         3.8010   -1.0740    2.3800 h1        1 MOL      0.137050
     60 N6          1.4180   -2.3390    3.3550 n         1 MOL     -0.539829
     61 C19         0.7800   -3.4240    4.1310 c3        1 MOL      0.234452
     62 C20        -0.3500   -4.1910    3.3700 c         1 MOL      0.447939
     63 O10        -1.3730   -3.6260    2.9280 o         1 MOL     -0.488875
     64 C21         0.1010   -2.8850    5.3970 c3        1 MOL     -0.290309
     65 C22        -0.4690   -3.8400    6.4370 c         1 MOL      0.771293
     66 O11        -0.9090   -3.3610    7.4890 o         1 MOL     -0.715417
     67 O12        -0.3390   -5.0860    6.2750 o         1 MOL     -0.715417
     68 H28         1.1470   -1.3960    3.6010 hn        1 MOL      0.314754
     69 H29         1.5000   -4.1380    4.5160 h1        1 MOL      0.002614
     70 H30        -0.5930   -2.1550    4.9780 hc        1 MOL      0.052505
     71 H31         0.8410   -2.3290    5.9740 hc        1 MOL      0.052505
     72 N7         -0.0210   -5.4580    3.0830 n         1 MOL     -0.261885
     73 C23        -0.7840   -6.4000    2.3170 c3        1 MOL     -0.441400
     74 C24        -0.9190   -6.1060    0.7730 c         1 MOL      0.524775
     75 O13        -1.3810   -6.9110   -0.0760 o         1 MOL     -0.569501
     76 H32         0.8900   -5.8280    3.3230 hn        1 MOL      0.271167
     77 H33        -1.8340   -6.3200    2.6030 h1        1 MOL      0.199596
     78 H34        -0.3290   -7.3890    2.3960 h1        1 MOL      0.199596
     79 N8         -0.3570   -4.9410    0.4560 n         1 MOL     -0.160271
     80 C25        -0.2760   -4.4330   -0.9700 c3        1 MOL     -0.058182
     81 C26        -0.5430   -2.9000   -0.8700 c         1 MOL      0.271898
     82 O14        -0.3890   -2.2060    0.1380 o         1 MOL     -0.433330
     83 C27         1.1060   -4.8430   -1.5980 c3        1 MOL      0.257214
     84 C28         1.2020   -4.4310   -3.1070 c3        1 MOL     -0.113002
     85 O15         2.2640   -4.3560   -0.8460 oh        1 MOL     -0.651476
     86 H35         0.0070   -4.3010    1.1520 hn        1 MOL      0.139697
     87 H36        -1.1540   -4.8840   -1.4320 h1        1 MOL      0.052282
     88 H37         0.9970   -5.9290   -1.6930 h1        1 MOL      0.028833
     89 H38         2.3970   -4.9440   -0.1040 ho        1 MOL      0.378533
     90 H39         1.2330   -3.3360   -3.1990 hc        1 MOL      0.025709
     91 H40         2.0790   -4.8800   -3.5850 hc        1 MOL      0.025709
     92 H41         0.3580   -4.7430   -3.7110 hc        1 MOL      0.025709
     93 N9         -0.9730   -2.3280   -1.9840 n         1 MOL     -0.010456
     94 C29        -1.3370   -0.8430   -2.0730 c3        1 MOL     -0.192719
     95 C30        -2.8810   -0.6480   -1.6610 c         1 MOL      0.591870
     96 O16        -3.2780    0.3680   -1.1200 o         1 MOL     -0.520075
     97 C31        -0.9650   -0.2540   -3.4760 c3        1 MOL      0.175398
     98 C32         0.2720   -0.7840   -4.1870 c3        1 MOL     -0.426839
     99 C33        -0.8870    1.2500   -3.2380 c3        1 MOL     -0.165773
    100 C34         1.5880   -0.5210   -3.4210 c3        1 MOL      0.033098
    101 H42        -1.0210   -2.8360   -2.8500 hn        1 MOL      0.204342
    102 H43        -0.6890   -0.3680   -1.3330 h1        1 MOL      0.102610
    103 H44        -1.7420   -0.5030   -4.1960 hc        1 MOL     -0.001319
    104 H45         0.2810   -0.2450   -5.1410 hc        1 MOL      0.121104
    105 H46         0.1660   -1.8660   -4.1660 hc        1 MOL      0.121104
    106 H47        -0.0500    1.5740   -2.6170 hc        1 MOL      0.054073
    107 H48        -0.8230    1.8570   -4.1410 hc        1 MOL      0.054073
    108 H49        -1.7160    1.6750   -2.6810 hc        1 MOL      0.054073
    109 H50         2.4370   -0.7770   -4.0500 hc        1 MOL      0.026313
    110 H51         1.6670    0.5410   -3.1410 hc        1 MOL      0.026313
    111 H52         1.6120   -1.0840   -2.4870 hc        1 MOL      0.026313
    112 N10        -3.6590   -1.6830   -1.8250 n         1 MOL     -0.439714
    113 C35        -5.0430   -1.9150   -1.4570 c3        1 MOL      0.046080
    114 C36        -6.0520   -1.5220   -2.5860 c         1 MOL      0.498588
    115 O17        -5.7290   -1.6190   -3.8060 o         1 MOL     -0.506298
    116 C37        -5.3240   -3.3760   -1.0320 c3        1 MOL      0.328803
    117 C38        -4.3510   -3.8810    0.1440 c3        1 MOL     -0.341363
    118 O18        -6.6560   -3.5950   -0.6150 oh        1 MOL     -0.642031
    119 H53        -3.2250   -2.4690   -2.2980 hn        1 MOL      0.167858
    120 H54        -5.1940   -1.2010   -0.6560 h1        1 MOL      0.089067
    121 H55        -5.1650   -3.9550   -1.9320 h1        1 MOL      0.015223
    122 H56        -7.2880   -3.7350   -1.3250 ho        1 MOL      0.367331
    123 H57        -3.3910   -3.9610   -0.3740 hc        1 MOL      0.120929
    124 H58        -4.3600   -3.1700    0.9640 hc        1 MOL      0.120929
    125 H59        -4.3470   -4.8700    0.6210 hc        1 MOL      0.120929
    126 N11        -7.2600   -1.2270   -2.1200 n         1 MOL     -0.411270
    127 C39        -8.4870   -1.1370   -2.8430 c3        1 MOL     -0.123745
    128 C40        -9.2710    0.1600   -2.6500 c         1 MOL      0.664350
    129 O19       -10.0950    0.5540   -3.4890 o         1 MOL     -0.595890
    130 C41        -9.3770   -2.3700   -2.5160 c3        1 MOL      0.311326
    131 C42       -10.0360   -2.4930   -1.1470 c3        1 MOL     -0.248655
    132 O20        -8.5210   -3.5450   -2.7060 oh        1 MOL     -0.565884
    133 H60        -7.3330   -1.0610   -1.1210 hn        1 MOL      0.267705
    134 H61        -8.2740   -1.2150   -3.9080 h1        1 MOL      0.118415
    135 H62       -10.2260   -2.4120   -3.1940 h1        1 MOL      0.010149
    136 H63        -8.9130   -4.2010   -3.2800 ho        1 MOL      0.397641
    137 H64       -10.5000   -3.4700   -1.0620 hc        1 MOL      0.067560
    138 H65        -9.2620   -2.4730   -0.3820 hc        1 MOL      0.067560
    139 H66       -10.7740   -1.7070   -0.9780 hc        1 MOL      0.067560
    140 N12        -9.0960    0.8170   -1.5420 n         1 MOL     -0.386074
    141 C43        -9.7000    2.1180   -1.2030 c3        1 MOL     -0.101242
    142 C44        -8.8490    2.8940   -0.1330 c         1 MOL      0.530641
    143 O21        -8.1700    2.3370    0.7580 o         1 MOL     -0.538233
    144 C45       -11.1290    1.9480   -0.8060 c3        1 MOL     -0.195183
    145 C46       -11.2340    1.1640    0.5210 c3        1 MOL     -0.074464
    146 C47       -12.6640    0.8640    0.8940 c3        1 MOL     -0.029398
    147 C48       -12.7160    0.1050    2.1790 c3        1 MOL      0.041305
    148 N13       -14.0690   -0.2980    2.5430 n4        1 MOL     -0.176003
    149 H67        -8.5270    0.4130   -0.8040 hn        1 MOL      0.245524
    150 H68        -9.6440    2.6660   -2.1370 h1        1 MOL      0.139324
    151 H69       -11.6790    1.3830   -1.5550 hc        1 MOL      0.098258
    152 H70       -11.6270    2.8980   -0.6300 hc        1 MOL      0.098258
    153 H71       -10.7890    1.7620    1.3120 hc        1 MOL      0.061339
    154 H72       -10.6810    0.2380    0.3820 hc        1 MOL      0.061339
    155 H73       -13.1100    0.2410    0.1200 hc        1 MOL      0.032587
    156 H74       -13.2750    1.7710    0.9690 hc        1 MOL      0.032587
    157 H75       -12.3430    0.7740    2.9520 hx        1 MOL      0.077371
    158 H76       -12.1070   -0.7930    2.2790 hx        1 MOL      0.077371
    159 H77       -14.0430   -0.7870    3.4250 hn        1 MOL      0.219127
    160 H78       -14.7140    0.4800    2.4670 hn        1 MOL      0.219127
    161 H79       -14.4030   -0.9130    1.8130 hn        1 MOL      0.219127
    162 N14        -8.8190    4.1800   -0.2270 n         1 MOL     -0.387317
    163 C49        -8.4740    5.1270    0.8710 c3        1 MOL      0.196427
    164 C50        -6.9230    5.2120    1.1790 c         1 MOL      0.318389
    165 O22        -6.6210    5.3530    2.3500 o         1 MOL     -0.501422
    166 C51        -9.1240    6.5360    0.6220 c3        1 MOL     -0.015372
    167 C52        -9.0450    7.4950    1.8980 c3        1 MOL     -0.100202
    168 C53        -7.8920    8.4490    1.9280 c         1 MOL      0.748134
    169 O23        -6.8660    8.1790    1.2710 o         1 MOL     -0.652982
    170 O24        -8.0190    9.5580    2.4750 o         1 MOL     -0.652982
    171 H80        -9.2580    4.5990   -1.0370 hn        1 MOL      0.210839
    172 H81        -8.9550    4.6390    1.7150 h1        1 MOL      0.054576
    173 H82       -10.1960    6.4340    0.4730 hc        1 MOL      0.004138
    174 H83        -8.5860    7.0050   -0.2010 hc        1 MOL      0.004138
    175 H84        -8.9910    6.8880    2.8000 hc        1 MOL      0.000496
    176 H85       -10.0070    8.0110    1.9690 hc        1 MOL      0.000496
    177 N15        -5.9480    5.2120    0.3000 n         1 MOL     -0.241513
    178 C54        -5.8690    5.3660   -1.2190 c3        1 MOL     -0.145406
    179 H86        -5.7110    4.3890   -1.6750 h1        1 MOL      0.083370
    180 H87        -6.8000    5.7940   -1.5900 h1        1 MOL      0.083370
    181 H88        -5.0390    6.0240   -1.4750 h1        1 MOL      0.083370
    182 H89        -5.0460    5.3420    0.7450 hn        1 MOL      0.277195
    183 Ca1         7.7170    4.4120    0.4640 Ca        1 MOL      1.707905
    184 O25         8.3090    3.4910    3.0380 oh        1 MOL     -0.871200
    185 H90         7.7980    3.1130    3.7600 ho        1 MOL      0.422785
    186 H91         8.9920    4.0060    3.4670 ho        1 MOL      0.422785
    187 O26         8.5990    4.2250   -2.6240 oh        1 MOL     -0.871200
    188 H92         9.2470    4.4080   -3.3040 ho        1 MOL      0.422785
    189 H93         7.9250    4.8920   -2.7610 ho        1 MOL      0.422785
@<TRIPOS>BOND
     1    1    2 1   
     2    1    4 1   
     3    1    5 1   
     4    1    6 1   
     5    2    3 2   
     6    2    7 1   
     7    7    8 1   
     8    7   15 1   
     9    8    9 1   
    10    8   11 1   
    11    8   16 1   
    12    9   10 2   
    13    9   19 1   
    14   11   12 1   
    15   11   17 1   
    16   11   18 1   
    17   12   13 1   
    18   12   14 1   
    19   19   20 1   
    20   19   28 1   
    21   20   21 1   
    22   20   23 1   
    23   20   29 1   
    24   21   22 2   
    25   21   41 1   
    26   23   24 1   
    27   23   30 1   
    28   23   31 1   
    29   24   25 1   
    30   24   32 1   
    31   24   33 1   
    32   25   26 1   
    33   25   34 1   
    34   25   35 1   
    35   26   27 1   
    36   26   36 1   
    37   26   37 1   
    38   27   38 1   
    39   27   39 1   
    40   27   40 1   
    41   41   42 1   
    42   41   49 1   
    43   42   43 1   
    44   42   45 1   
    45   42   50 1   
    46   43   44 2   
    47   43   53 1   
    48   45   46 1   
    49   45   51 1   
    50   45   52 1   
    51   46   47 1   
    52   46   48 1   
    53   53   54 1   
    54   53   57 1   
    55   54   55 1   
    56   54   58 1   
    57   54   59 1   
    58   55   56 2   
    59   55   60 1   
    60   60   61 1   
    61   60   68 1   
    62   61   62 1   
    63   61   64 1   
    64   61   69 1   
    65   62   63 2   
    66   62   72 1   
    67   64   65 1   
    68   64   70 1   
    69   64   71 1   
    70   65   66 1   
    71   65   67 1   
    72   72   73 1   
    73   72   76 1   
    74   73   74 1   
    75   73   77 1   
    76   73   78 1   
    77   74   75 2   
    78   74   79 1   
    79   79   80 1   
    80   79   86 1   
    81   80   81 1   
    82   80   83 1   
    83   80   87 1   
    84   81   82 2   
    85   81   93 1   
    86   83   84 1   
    87   83   85 1   
    88   83   88 1   
    89   84   90 1   
    90   84   91 1   
    91   84   92 1   
    92   85   89 1   
    93   93   94 1   
    94   93  101 1   
    95   94   95 1   
    96   94   97 1   
    97   94  102 1   
    98   95   96 2   
    99   95  112 1   
   100   97   98 1   
   101   97   99 1   
   102   97  103 1   
   103   98  100 1   
   104   98  104 1   
   105   98  105 1   
   106   99  106 1   
   107   99  107 1   
   108   99  108 1   
   109  100  109 1   
   110  100  110 1   
   111  100  111 1   
   112  112  113 1   
   113  112  119 1   
   114  113  114 1   
   115  113  116 1   
   116  113  120 1   
   117  114  115 2   
   118  114  126 1   
   119  116  117 1   
   120  116  118 1   
   121  116  121 1   
   122  117  123 1   
   123  117  124 1   
   124  117  125 1   
   125  118  122 1   
   126  126  127 1   
   127  126  133 1   
   128  127  128 1   
   129  127  130 1   
   130  127  134 1   
   131  128  129 2   
   132  128  140 1   
   133  130  131 1   
   134  130  132 1   
   135  130  135 1   
   136  131  137 1   
   137  131  138 1   
   138  131  139 1   
   139  132  136 1   
   140  140  141 1   
   141  140  149 1   
   142  141  142 1   
   143  141  144 1   
   144  141  150 1   
   145  142  143 2   
   146  142  162 1   
   147  144  145 1   
   148  144  151 1   
   149  144  152 1   
   150  145  146 1   
   151  145  153 1   
   152  145  154 1   
   153  146  147 1   
   154  146  155 1   
   155  146  156 1   
   156  147  148 1   
   157  147  157 1   
   158  147  158 1   
   159  148  159 1   
   160  148  160 1   
   161  148  161 1   
   162  162  163 1   
   163  162  171 1   
   164  163  164 1   
   165  163  166 1   
   166  163  172 1   
   167  164  165 2   
   168  164  177 1   
   169  166  167 1   
   170  166  173 1   
   171  166  174 1   
   172  167  168 1   
   173  167  175 1   
   174  167  176 1   
   175  168  169 1   
   176  168  170 1   
   177  177  178 1   
   178  177  182 1   
   179  178  179 1   
   180  178  180 1   
   181  178  181 1   
   182  184  185 1   
   183  184  186 1   
   184  187  188 1   
   185  187  189 1   
@<TRIPOS>SUBSTRUCTURE
     1 MOL         1 TEMP              0 ****  ****    0 ROOT
