@<TRIPOS>MOLECULE
MOL
  195   189     1     0     0
SMALL
resp


@<TRIPOS>ATOM
      1 C1         -3.4000   -2.0260    2.7220 c3        1 MOL     -0.176925
      2 C2         -2.6600   -2.6720    1.4970 c         1 MOL      0.567050
      3 O1         -1.6700   -2.1430    1.0620 o         1 MOL     -0.511689
      4 H1         -4.3090   -1.5340    2.3780 hc        1 MOL      0.023420
      5 H2         -3.6580   -2.8020    3.4420 hc        1 MOL      0.023420
      6 H3         -2.7480   -1.2930    3.1960 hc        1 MOL      0.023420
      7 N1         -3.1570   -3.7500    1.0050 n         1 MOL     -0.383837
      8 C3         -2.3870   -4.6050   -0.0180 c3        1 MOL     -0.026910
      9 C4         -0.8300   -4.8330    0.2140 c         1 MOL      0.784876
     10 O2         -0.0830   -4.8170   -0.7910 o         1 MOL     -0.548810
     11 C5         -2.8110   -4.1680   -1.4240 c3        1 MOL     -0.549857
     12 C6         -4.3580   -4.0120   -1.5740 c         1 MOL      0.974340
     13 O3         -5.1800   -4.7330   -0.9330 o         1 MOL     -0.794088
     14 O4         -4.7450   -3.1810   -2.4600 o         1 MOL     -0.794088
     15 H4         -4.0870   -3.9980    1.3000 hn        1 MOL      0.185604
     16 H5         -2.8060   -5.6100    0.0570 h1        1 MOL      0.072742
     17 H6         -2.5310   -4.9790   -2.0840 hc        1 MOL      0.171042
     18 H7         -2.3590   -3.1990   -1.6860 hc        1 MOL      0.171042
     19 N2         -0.3620   -4.9960    1.4380 n         1 MOL     -0.648961
     20 C7          1.0900   -5.1380    1.8010 c3        1 MOL     -0.036802
     21 C8          1.6640   -6.5090    1.4390 c         1 MOL      0.435656
     22 O5          1.0240   -7.5710    1.5090 o         1 MOL     -0.568628
     23 C9          1.3920   -4.6130    3.2400 c3        1 MOL      0.189679
     24 C10         0.9260   -5.6410    4.2750 c3        1 MOL      0.116001
     25 C11         0.9080   -3.2210    3.4230 c3        1 MOL     -0.052421
     26 C12         1.0760   -5.1850    5.7380 c3        1 MOL     -0.196553
     27 H8         -0.9740   -5.0320    2.2530 hn        1 MOL      0.318455
     28 H9          1.6360   -4.3980    1.2220 h1        1 MOL      0.064327
     29 H10         2.4720   -4.5400    3.3420 hc        1 MOL      0.002422
     30 H11         1.5410   -6.5200    4.1130 hc        1 MOL     -0.027221
     31 H12        -0.1090   -5.9580    4.0950 hc        1 MOL     -0.027221
     32 H13        -0.1710   -3.1570    3.5280 hc        1 MOL      0.014722
     33 H14         1.3780   -2.7050    4.2660 hc        1 MOL      0.014722
     34 H15         1.2340   -2.6520    2.5570 hc        1 MOL      0.014722
     35 H16         2.0750   -4.7920    5.9280 hc        1 MOL      0.027572
     36 H17         0.4330   -4.3200    5.9090 hc        1 MOL      0.027572
     37 H18         0.9210   -6.0160    6.4350 hc        1 MOL      0.027572
     38 N3          2.8860   -6.6020    0.8850 n         1 MOL     -0.253963
     39 C13         3.9840   -5.6160    1.0440 c3        1 MOL     -0.080490
     40 C14         4.0570   -4.5260   -0.1080 c         1 MOL      0.650457
     41 O6          4.7100   -3.5330    0.1060 o         1 MOL     -0.580244
     42 C15         5.2520   -6.4630    1.1160 c3        1 MOL     -0.017708
     43 C16         5.7650   -7.1160   -0.2020 c         1 MOL      0.607989
     44 O7          4.9710   -7.6810   -0.9860 o         1 MOL     -0.669413
     45 O8          6.9870   -6.9800   -0.5080 o         1 MOL     -0.669413
     46 H19         3.0190   -7.5180    0.4810 hn        1 MOL      0.219678
     47 H20         3.9970   -5.0670    1.9840 h1        1 MOL      0.037405
     48 H21         5.0580   -7.3200    1.7690 hc        1 MOL     -0.009514
     49 H22         6.1060   -5.9320    1.5480 hc        1 MOL     -0.009514
     50 N4          3.4950   -4.8450   -1.3280 n         1 MOL     -0.219419
     51 C17         3.4120   -3.8470   -2.3570 c3        1 MOL     -0.314265
     52 C18         4.7550   -3.2820   -2.7750 c         1 MOL      0.560946
     53 O9          5.7110   -3.9870   -2.9980 o         1 MOL     -0.505966
     54 H23         2.9900   -5.7180   -1.4200 hn        1 MOL      0.236492
     55 H24         2.6950   -3.0810   -2.0780 h1        1 MOL      0.130791
     56 H25         2.9940   -4.3090   -3.2540 h1        1 MOL      0.130791
     57 N5          4.8940   -1.9230   -2.8330 n         1 MOL     -0.493342
     58 C19         6.1200   -1.2140   -3.2040 c3        1 MOL      0.191156
     59 C20         6.9730   -0.8440   -1.9940 c         1 MOL      0.390698
     60 O10         8.1800   -0.7380   -2.1480 o         1 MOL     -0.583014
     61 C21         5.7740   -0.0040   -4.0330 c3        1 MOL     -0.251421
     62 C22         4.7310    0.8260   -3.2620 c         1 MOL      0.702211
     63 O11         3.5330    0.5690   -3.4170 o         1 MOL     -0.697003
     64 O12         5.1110    1.6890   -2.4600 o         1 MOL     -0.697003
     65 H26         4.1120   -1.3330   -2.5590 hn        1 MOL      0.263988
     66 H27         6.7100   -1.7460   -3.9390 h1        1 MOL      0.056599
     67 H28         5.3230   -0.3870   -4.9520 hc        1 MOL      0.035553
     68 H29         6.6950    0.5240   -4.2650 hc        1 MOL      0.035553
     69 N6          6.4340   -0.7220   -0.8280 n         1 MOL      0.027212
     70 C23         7.2660   -0.3230    0.3740 c3        1 MOL     -0.397682
     71 C24         7.6640    1.1840    0.5140 c         1 MOL      0.686291
     72 O13         8.2790    1.6470    1.4640 o         1 MOL     -0.580889
     73 H30         5.4310   -0.7590   -0.6960 hn        1 MOL      0.208388
     74 H31         8.1520   -0.9550    0.2820 h1        1 MOL      0.148753
     75 H32         6.7560   -0.6160    1.3000 h1        1 MOL      0.148753
     76 N7          7.2340    2.0150   -0.4490 n         1 MOL     -0.386853
     77 C25         7.3210    3.4810   -0.4420 c3        1 MOL      0.007133
     78 C26         6.7500    4.2080    0.8780 c         1 MOL      0.505747
     79 O14         7.1440    5.3630    1.1460 o         1 MOL     -0.529203
     80 C27         8.6660    4.0000   -0.9070 c3        1 MOL     -0.019694
     81 C28         8.9420    3.5370   -2.3680 c3        1 MOL      0.047269
     82 C29        10.2210    3.9880   -2.9200 c         1 MOL      0.531521
     83 N8         10.7140    3.3370   -3.9240 n         1 MOL     -0.699787
     84 O15        10.9130    4.8590   -2.3790 o         1 MOL     -0.574402
     85 H33         6.8380    1.6500   -1.3070 hn        1 MOL      0.167142
     86 H34         6.6640    3.9990   -1.1420 h1        1 MOL      0.108291
     87 H35         9.3830    3.6760   -0.1630 hc        1 MOL      0.026017
     88 H36         8.7060    5.0930   -0.9530 hc        1 MOL      0.026017
     89 H37         8.1620    3.8370   -3.0560 hc        1 MOL      0.017842
     90 H38         8.9020    2.4470   -2.3530 hc        1 MOL      0.017842
     91 H39        10.1850    2.7030   -4.5080 hn        1 MOL      0.323188
     92 H40        11.5620    3.7310   -4.2950 hn        1 MOL      0.323188
     93 N9          5.7440    3.6490    1.5830 n         1 MOL     -0.438906
     94 C30         5.1630    4.1540    2.8310 c3        1 MOL     -0.069730
     95 C31         3.6220    4.0040    2.7260 c         1 MOL      0.603139
     96 O16         2.9510    4.3520    3.6800 o         1 MOL     -0.621776
     97 C32         5.6890    3.3980    4.0380 c3        1 MOL      0.167772
     98 C33         5.3420    1.8770    4.0130 c3        1 MOL     -0.231369
     99 C34         7.2070    3.6360    4.2090 c3        1 MOL     -0.231369
    100 H41         5.5070    2.6870    1.4180 hn        1 MOL      0.319752
    101 H42         5.3980    5.1970    3.0240 h1        1 MOL      0.121984
    102 H43         5.3010    3.7430    4.9980 hc        1 MOL     -0.002605
    103 H44         5.2900    1.4470    5.0090 hc        1 MOL      0.057191
    104 H45         4.2900    1.7230    3.7520 hc        1 MOL      0.057191
    105 H46         5.9680    1.2750    3.3450 hc        1 MOL      0.057191
    106 H47         7.3980    4.6850    4.4000 hc        1 MOL      0.057191
    107 H48         7.5420    2.9770    5.0210 hc        1 MOL      0.057191
    108 H49         7.7550    3.2890    3.3290 hc        1 MOL      0.057191
    109 N10         3.0190    3.3510    1.7320 n         1 MOL     -0.579266
    110 C35         1.5710    3.0430    1.6870 c3        1 MOL      0.599160
    111 C36         0.9190    3.7000    0.4670 c         1 MOL      0.369979
    112 O17         1.5440    4.3750   -0.3920 o         1 MOL     -0.509310
    113 C37         1.1930    1.5580    1.6790 c3        1 MOL     -0.181505
    114 C38         1.8780    0.7930    2.7720 c         1 MOL      0.555079
    115 N11         1.4390    1.0570    3.9900 n         1 MOL     -0.789608
    116 O18         2.7350   -0.0140    2.5620 o         1 MOL     -0.537212
    117 H50         3.6380    2.8870    1.0790 hn        1 MOL      0.227446
    118 H51         1.0720    3.4560    2.5700 h1        1 MOL     -0.055131
    119 H52         1.3680    1.1140    0.7010 hc        1 MOL      0.087605
    120 H53         0.1160    1.4810    1.8530 hc        1 MOL      0.087605
    121 H54         0.7870    1.8020    4.1660 hn        1 MOL      0.366748
    122 H55         1.9970    0.6130    4.7090 hn        1 MOL      0.366748
    123 N12        -0.4070    3.6130    0.4010 n         1 MOL     -0.585156
    124 C39        -1.2400    4.1160   -0.7230 c3        1 MOL      0.363644
    125 C40        -2.6790    4.3100   -0.2060 c         1 MOL      0.513175
    126 O19        -3.1230    3.5890    0.7470 o         1 MOL     -0.567603
    127 C41        -1.1190    3.2530   -1.9610 c3        1 MOL     -0.440416
    128 C42        -2.2080    2.1940   -2.1570 ca        1 MOL      0.088793
    129 C43        -1.9720    0.8770   -1.5590 ca        1 MOL     -0.181314
    130 C44        -3.3820    2.4790   -2.8600 ca        1 MOL     -0.181314
    131 C45        -3.0730   -0.0190   -1.6240 ca        1 MOL     -0.128040
    132 C46        -4.4140    1.5280   -2.9220 ca        1 MOL     -0.128040
    133 C47        -4.2460    0.3040   -2.2610 ca        1 MOL      0.101997
    134 O20        -5.2500   -0.5520   -2.3280 oh        1 MOL     -0.443948
    135 H56        -0.9200    3.1660    1.1480 hn        1 MOL      0.267803
    136 H57        -0.8810    5.1360   -0.8460 h1        1 MOL      0.045752
    137 H58        -0.1950    2.6660   -2.0220 hc        1 MOL      0.156714
    138 H59        -1.1610    3.9470   -2.8000 hc        1 MOL      0.156714
    139 H60        -1.0680    0.6630   -1.0120 ha        1 MOL      0.151312
    140 H61        -3.5180    3.4430   -3.3260 ha        1 MOL      0.151312
    141 H62        -2.9990   -0.9210   -1.0200 ha        1 MOL      0.097081
    142 H63        -5.3040    1.7570   -3.4770 ha        1 MOL      0.097081
    143 H64        -5.0410   -1.3360   -1.8240 ho        1 MOL      0.532566
    144 N13        -3.3600    5.3160   -0.7810 n         1 MOL     -0.615077
    145 C48        -4.8310    5.5010   -0.5070 c3        1 MOL      0.143053
    146 C49        -5.6670    4.7110   -1.5310 c         1 MOL      0.629100
    147 O21        -5.6200    5.1030   -2.6880 o         1 MOL     -0.584720
    148 C50        -5.0660    6.9920   -0.4170 c3        1 MOL      0.108429
    149 C51        -6.5030    7.4720    0.0240 c3        1 MOL     -0.381346
    150 C52        -6.5220    9.0370    0.1890 c         1 MOL      0.700208
    151 O22        -6.6460    9.6970   -0.8400 o         1 MOL     -0.694755
    152 O23        -6.2790    9.6480    1.2820 o         1 MOL     -0.694755
    153 H65        -2.9290    6.0530   -1.3210 hn        1 MOL      0.309086
    154 H66        -5.0780    5.1550    0.4950 h1        1 MOL      0.037880
    155 H67        -4.9040    7.4120   -1.4030 hc        1 MOL      0.020172
    156 H68        -4.4440    7.5240    0.3090 hc        1 MOL      0.020172
    157 H69        -6.6370    6.9110    0.9470 hc        1 MOL      0.080022
    158 H70        -7.2710    7.1750   -0.6960 hc        1 MOL      0.080022
    159 N14        -6.4460    3.6700   -1.2490 n         1 MOL     -0.580404
    160 C53        -6.2500    2.8360   -0.0770 c3        1 MOL     -0.105557
    161 C54        -6.8290    3.5510    1.1660 c         1 MOL      0.450648
    162 O24        -7.9110    4.1010    1.1770 o         1 MOL     -0.524967
    163 C55        -7.0020    1.5480   -0.3090 c3        1 MOL      0.037154
    164 C56        -6.3450    0.5370    0.5560 c3        1 MOL      0.126196
    165 C57        -6.8690   -0.9040    0.2560 c         1 MOL      0.535737
    166 O25        -6.0790   -1.8760    0.3660 o         1 MOL     -0.720515
    167 O26        -8.0570   -1.1340   -0.0830 o         1 MOL     -0.720515
    168 H71        -7.0650    3.2960   -1.9550 hn        1 MOL      0.351458
    169 H72        -5.1730    2.6380    0.0090 h1        1 MOL      0.140879
    170 H73        -6.8430    1.1780   -1.3240 hc        1 MOL      0.017842
    171 H74        -8.0700    1.6010   -0.1040 hc        1 MOL      0.017842
    172 H75        -6.5690    0.7420    1.6010 hc        1 MOL     -0.026340
    173 H76        -5.2560    0.5230    0.4780 hc        1 MOL     -0.026340
    174 N15        -6.0970    3.4720    2.2680 n         1 MOL     -0.153440
    175 C58        -6.3950    3.9470    3.6080 c3        1 MOL     -0.181733
    176 H77        -7.4190    4.3210    3.6410 h1        1 MOL      0.078023
    177 H78        -6.2860    3.1260    4.3170 h1        1 MOL      0.078023
    178 H79        -5.7070    4.7500    3.8710 h1        1 MOL      0.078023
    179 H80        -5.2140    2.9750    2.1790 hn        1 MOL      0.206568
    180 Ca1        -7.6190   -3.9020   -0.4960 Ca        1 MOL      1.723782
    181 O27        -9.3430   -5.7440    0.2290 oh        1 MOL     -0.837968
    182 O28        -7.3150   -2.6330   -2.8540 oh        1 MOL     -0.837968
    183 H81        -9.8140   -6.4970   -0.1160 ho        1 MOL      0.395643
    184 H82        -6.3560   -2.6180   -2.8690 ho        1 MOL      0.395643
    185 H83        -9.7430   -5.5820    1.0860 ho        1 MOL      0.395643
    186 H84        -7.5800   -1.9000   -3.4080 ho        1 MOL      0.395643
    187 O29        -9.9070   -3.4390   -1.6600 oh        1 MOL     -0.837968
    188 H85       -10.6650   -3.5530   -1.0810 ho        1 MOL      0.395643
    189 H86       -10.2040   -3.7510   -2.5160 ho        1 MOL      0.395643
    190 O30        -9.2960   -2.9550    1.5190 oh        1 MOL     -0.837968
    191 H87        -9.1570   -2.1060    1.1080 ho        1 MOL      0.395643
    192 H88        -9.8930   -2.7700    2.2450 ho        1 MOL      0.395643
    193 O31        -7.9960   -5.5980   -2.4860 oh        1 MOL     -0.837968
    194 H89        -8.0030   -5.0830   -3.2940 ho        1 MOL      0.395643
    195 H90        -8.0310   -6.5080   -2.7850 ho        1 MOL      0.395643
@<TRIPOS>BOND
     1    1    2 1   
     2    1    4 1   
     3    1    5 1   
     4    1    6 1   
     5    2    3 2   
     6    2    7 1   
     7    7    8 1   
     8    7   15 1   
     9    8    9 1   
    10    8   11 1   
    11    8   16 1   
    12    9   10 2   
    13    9   19 1   
    14   11   12 1   
    15   11   17 1   
    16   11   18 1   
    17   12   13 1   
    18   12   14 1   
    19   19   20 1   
    20   19   27 1   
    21   20   21 1   
    22   20   23 1   
    23   20   28 1   
    24   21   22 2   
    25   21   38 1   
    26   23   24 1   
    27   23   25 1   
    28   23   29 1   
    29   24   26 1   
    30   24   30 1   
    31   24   31 1   
    32   25   32 1   
    33   25   33 1   
    34   25   34 1   
    35   26   35 1   
    36   26   36 1   
    37   26   37 1   
    38   38   39 1   
    39   38   46 1   
    40   39   40 1   
    41   39   42 1   
    42   39   47 1   
    43   40   41 2   
    44   40   50 1   
    45   42   43 1   
    46   42   48 1   
    47   42   49 1   
    48   43   44 1   
    49   43   45 1   
    50   50   51 1   
    51   50   54 1   
    52   51   52 1   
    53   51   55 1   
    54   51   56 1   
    55   52   53 2   
    56   52   57 1   
    57   57   58 1   
    58   57   65 1   
    59   58   59 1   
    60   58   61 1   
    61   58   66 1   
    62   59   60 2   
    63   59   69 1   
    64   61   62 1   
    65   61   67 1   
    66   61   68 1   
    67   62   63 1   
    68   62   64 1   
    69   69   70 1   
    70   69   73 1   
    71   70   71 1   
    72   70   74 1   
    73   70   75 1   
    74   71   72 2   
    75   71   76 1   
    76   76   77 1   
    77   76   85 1   
    78   77   78 1   
    79   77   80 1   
    80   77   86 1   
    81   78   79 2   
    82   78   93 1   
    83   80   81 1   
    84   80   87 1   
    85   80   88 1   
    86   81   82 1   
    87   81   89 1   
    88   81   90 1   
    89   82   83 1   
    90   82   84 2   
    91   83   91 1   
    92   83   92 1   
    93   93   94 1   
    94   93  100 1   
    95   94   95 1   
    96   94   97 1   
    97   94  101 1   
    98   95   96 2   
    99   95  109 1   
   100   97   98 1   
   101   97   99 1   
   102   97  102 1   
   103   98  103 1   
   104   98  104 1   
   105   98  105 1   
   106   99  106 1   
   107   99  107 1   
   108   99  108 1   
   109  109  110 1   
   110  109  117 1   
   111  110  111 1   
   112  110  113 1   
   113  110  118 1   
   114  111  112 2   
   115  111  123 1   
   116  113  114 1   
   117  113  119 1   
   118  113  120 1   
   119  114  115 1   
   120  114  116 2   
   121  115  121 1   
   122  115  122 1   
   123  123  124 1   
   124  123  135 1   
   125  124  125 1   
   126  124  127 1   
   127  124  136 1   
   128  125  126 2   
   129  125  144 1   
   130  127  128 1   
   131  127  137 1   
   132  127  138 1   
   133  128  129 ar  
   134  128  130 ar  
   135  129  131 ar  
   136  129  139 1   
   137  130  132 ar  
   138  130  140 1   
   139  131  133 ar  
   140  131  141 1   
   141  132  133 ar  
   142  132  142 1   
   143  133  134 1   
   144  134  143 1   
   145  144  145 1   
   146  144  153 1   
   147  145  146 1   
   148  145  148 1   
   149  145  154 1   
   150  146  147 2   
   151  146  159 1   
   152  148  149 1   
   153  148  155 1   
   154  148  156 1   
   155  149  150 1   
   156  149  157 1   
   157  149  158 1   
   158  150  151 1   
   159  150  152 1   
   160  159  160 1   
   161  159  168 1   
   162  160  161 1   
   163  160  163 1   
   164  160  169 1   
   165  161  162 2   
   166  161  174 1   
   167  163  164 1   
   168  163  170 1   
   169  163  171 1   
   170  164  165 1   
   171  164  172 1   
   172  164  173 1   
   173  165  166 1   
   174  165  167 1   
   175  174  175 1   
   176  174  179 1   
   177  175  176 1   
   178  175  177 1   
   179  175  178 1   
   180  181  183 1   
   181  181  185 1   
   182  182  184 1   
   183  182  186 1   
   184  187  188 1   
   185  187  189 1   
   186  190  191 1   
   187  190  192 1   
   188  193  194 1   
   189  193  195 1   
@<TRIPOS>SUBSTRUCTURE
     1 MOL         1 TEMP              0 ****  ****    0 ROOT
