@<TRIPOS>MOLECULE
MOL
  195   189     1     0     0
SMALL
resp


@<TRIPOS>ATOM
      1 C1          4.8330   -5.5710    1.6930 c3        1 MOL     -0.360305
      2 C2          4.1160   -4.4610    0.8930 c         1 MOL      0.676225
      3 O1          4.7080   -3.7420    0.1670 o         1 MOL     -0.591326
      4 H1          5.6440   -5.9850    1.0940 hc        1 MOL      0.085603
      5 H2          5.2390   -5.1520    2.6130 hc        1 MOL      0.085603
      6 H3          4.1220   -6.3610    1.9360 hc        1 MOL      0.085603
      7 N1          2.7990   -4.2580    1.1030 n         1 MOL     -0.421041
      8 C3          1.8950   -5.3420    1.6730 c3        1 MOL      0.134411
      9 C4          1.3150   -6.2500    0.5880 c         1 MOL      0.406175
     10 O2          1.0660   -7.4230    0.8350 o         1 MOL     -0.558673
     11 C5          0.7560   -4.5830    2.3270 c3        1 MOL     -0.080192
     12 C6          1.2190   -3.3890    3.1220 c         1 MOL      0.517878
     13 O3          1.2460   -3.5190    4.3710 o         1 MOL     -0.602071
     14 O4          1.6360   -2.3400    2.5490 o         1 MOL     -0.602071
     15 H4          2.3300   -3.4680    0.6850 hn        1 MOL      0.183639
     16 H5          2.3270   -6.0520    2.3840 h1        1 MOL      0.050746
     17 H6          0.0890   -5.1640    2.9700 hc        1 MOL      0.027344
     18 H7          0.1240   -4.1820    1.5370 hc        1 MOL      0.027344
     19 N2          1.2730   -5.7540   -0.6290 n         1 MOL     -0.177436
     20 C7          0.6360   -6.3940   -1.7960 c3        1 MOL     -0.245434
     21 C8         -0.8760   -6.3030   -1.9470 c         1 MOL      0.533650
     22 O5         -1.4440   -7.0790   -2.6990 o         1 MOL     -0.554900
     23 C9          1.2730   -5.9630   -3.1370 c3        1 MOL      0.165516
     24 C10         0.9900   -4.6110   -3.6170 c3        1 MOL      0.238684
     25 C11         2.8150   -6.0990   -3.0930 c3        1 MOL     -0.302790
     26 C12         0.9080   -4.2970   -5.1770 c3        1 MOL     -0.309418
     27 H8          1.5300   -4.7860   -0.7410 hn        1 MOL      0.191659
     28 H9          0.8800   -7.4480   -1.6920 h1        1 MOL      0.137161
     29 H10         0.9220   -6.6760   -3.8730 hc        1 MOL     -0.014580
     30 H11         1.7540   -3.9220   -3.2590 hc        1 MOL     -0.004872
     31 H12         0.0080   -4.3190   -3.2520 hc        1 MOL     -0.004872
     32 H13         3.0090   -7.1700   -3.1850 hc        1 MOL      0.053637
     33 H14         3.3370   -5.6510   -3.9310 hc        1 MOL      0.053637
     34 H15         3.2950   -5.6820   -2.2050 hc        1 MOL      0.053637
     35 H16        -0.1090   -4.5080   -5.5050 hc        1 MOL      0.052924
     36 H17         1.0590   -3.2240   -5.3250 hc        1 MOL      0.052924
     37 H18         1.6740   -4.7310   -5.8070 hc        1 MOL      0.052924
     38 N3         -1.5970   -5.4360   -1.1920 n         1 MOL     -0.323878
     39 C13        -3.0760   -5.3270   -1.3010 c3        1 MOL      0.340551
     40 C14        -3.7050   -4.7640   -0.0100 c         1 MOL      0.336515
     41 O6         -3.0060   -4.1830    0.8450 o         1 MOL     -0.516844
     42 C15        -3.3840   -4.4850   -2.5500 c3        1 MOL     -0.307733
     43 C16        -4.9200   -4.5970   -2.9060 c         1 MOL      0.715566
     44 O7         -5.5880   -5.6000   -2.6910 o         1 MOL     -0.709204
     45 O8         -5.4870   -3.5550   -3.3550 o         1 MOL     -0.709204
     46 H19        -1.2070   -4.7630   -0.5630 hn        1 MOL      0.139422
     47 H20        -3.5570   -6.3050   -1.4290 h1        1 MOL     -0.046960
     48 H21        -2.8770   -4.9330   -3.3960 hc        1 MOL      0.050102
     49 H22        -3.0010   -3.4760   -2.4370 hc        1 MOL      0.050102
     50 N4         -5.0220   -4.8700    0.0700 n         1 MOL     -0.359679
     51 C17        -5.8280   -4.1190    1.1140 c3        1 MOL     -0.059884
     52 C18        -5.9620   -2.5780    0.8120 c         1 MOL      0.690038
     53 O9         -5.0760   -2.0970    0.1740 o         1 MOL     -0.538049
     54 H23        -5.4970   -5.3660   -0.6720 hn        1 MOL      0.289113
     55 H24        -5.2810   -4.2070    2.0540 h1        1 MOL      0.047480
     56 H25        -6.8410   -4.4990    1.2620 h1        1 MOL      0.047480
     57 N5         -7.0920   -2.0290    1.1530 n         1 MOL     -0.597462
     58 C19        -7.2700   -0.5330    0.8750 c3        1 MOL      0.226618
     59 C20        -7.6560   -0.2810   -0.5990 c         1 MOL      0.694924
     60 O10        -8.4440   -1.0920   -1.1520 o         1 MOL     -0.553420
     61 C21        -8.3010    0.0920    1.8570 c3        1 MOL     -0.206239
     62 C22        -8.6570   -0.6990    3.1110 c         1 MOL      0.698107
     63 O11        -7.7780   -0.7150    3.9860 o         1 MOL     -0.733604
     64 O12        -9.7620   -1.3150    3.1870 o         1 MOL     -0.733604
     65 H26        -7.8060   -2.5750    1.6340 hn        1 MOL      0.336147
     66 H27        -6.2690   -0.1410    1.0530 h1        1 MOL     -0.023269
     67 H28        -9.2160    0.2240    1.2750 hc        1 MOL      0.014751
     68 H29        -8.0280    1.0680    2.2530 hc        1 MOL      0.014751
     69 N6         -7.1600    0.8470   -1.1190 n         1 MOL     -0.749213
     70 C23        -6.3860    2.0020   -0.5400 c3        1 MOL      0.164445
     71 C24        -6.2500    3.1940   -1.5670 c         1 MOL      0.648703
     72 O13        -6.8430    3.1320   -2.6550 o         1 MOL     -0.544189
     73 H30        -7.3080    0.9470   -2.1150 hn        1 MOL      0.341762
     74 H31        -5.4020    1.5960   -0.3020 h1        1 MOL      0.092299
     75 H32        -6.8280    2.2870    0.4140 h1        1 MOL      0.092299
     76 N7         -5.5900    4.3320   -1.3030 n         1 MOL     -0.734907
     77 C25        -5.0210    4.8020   -0.0270 c3        1 MOL      0.415920
     78 C26        -3.8950    3.8660    0.4870 c         1 MOL      0.223937
     79 O14        -3.9600    3.3040    1.5950 o         1 MOL     -0.476780
     80 C27        -6.0950    5.1740    1.0300 c3        1 MOL     -0.206998
     81 C28        -7.2550    5.9750    0.4230 c3        1 MOL     -0.230316
     82 C29        -8.1890    6.3440    1.4870 c         1 MOL      0.762420
     83 N8         -8.7550    7.5330    1.4170 n         1 MOL     -0.862408
     84 O15        -8.6440    5.5460    2.2620 o         1 MOL     -0.553064
     85 H33        -5.4820    4.9710   -2.0740 hn        1 MOL      0.337927
     86 H34        -4.4580    5.7080   -0.2470 h1        1 MOL      0.002719
     87 H35        -5.6090    5.8530    1.7450 hc        1 MOL      0.072622
     88 H36        -6.4660    4.2900    1.5480 hc        1 MOL      0.072622
     89 H37        -7.8320    5.4140   -0.3050 hc        1 MOL      0.066002
     90 H38        -6.8270    6.9070    0.0570 hc        1 MOL      0.066002
     91 H39        -8.4640    8.1710    0.6900 hn        1 MOL      0.366572
     92 H40        -9.5980    7.6480    1.9630 hn        1 MOL      0.366572
     93 N9         -2.8520    3.6700   -0.3470 n         1 MOL     -0.332793
     94 C30        -1.7230    2.7550   -0.1280 c3        1 MOL      0.044049
     95 C31        -1.3730    1.9490   -1.3600 c         1 MOL      0.460533
     96 O16        -1.6710    2.3830   -2.5160 o         1 MOL     -0.521665
     97 C32        -0.4930    3.4990    0.4370 c3        1 MOL      0.112493
     98 C33        -0.6350    4.3210    1.7050 c3        1 MOL     -0.348787
     99 C34         0.0830    4.5310   -0.5910 c3        1 MOL     -0.348787
    100 H41        -2.8970    3.9900   -1.3090 hn        1 MOL      0.238435
    101 H42        -2.0430    2.0060    0.5940 h1        1 MOL      0.143099
    102 H43         0.2870    2.8020    0.7240 hc        1 MOL      0.090356
    103 H44        -0.9360    3.5960    2.4630 hc        1 MOL      0.091994
    104 H45         0.2830    4.7790    2.0940 hc        1 MOL      0.091994
    105 H46        -1.5180    4.9590    1.6100 hc        1 MOL      0.091994
    106 H47        -0.5820    5.3920   -0.6820 hc        1 MOL      0.091994
    107 H48         1.0840    4.8120   -0.2850 hc        1 MOL      0.091994
    108 H49         0.1950    4.1400   -1.6010 hc        1 MOL      0.091994
    109 N10        -0.5690    0.8840   -1.2410 n         1 MOL     -0.410490
    110 C35        -0.1380    0.0300   -2.3580 c3        1 MOL      0.126605
    111 C36         1.3650    0.2190   -2.7360 c         1 MOL      0.393775
    112 O17         2.1250   -0.7340   -2.7910 o         1 MOL     -0.487954
    113 C37        -0.5050   -1.4480   -2.0110 c3        1 MOL     -0.211430
    114 C38         0.1890   -2.0130   -0.8020 c         1 MOL      0.565737
    115 N11        -0.0820   -1.5030    0.4100 n         1 MOL     -0.489150
    116 O18         0.9980   -2.9010   -0.9700 o         1 MOL     -0.469001
    117 H50        -0.3460    0.6570   -0.2730 hn        1 MOL      0.139273
    118 H51        -0.7070    0.2700   -3.2470 h1        1 MOL      0.090694
    119 H52        -0.3840   -2.1070   -2.8730 hc        1 MOL      0.094678
    120 H53        -1.5640   -1.5720   -1.8050 hc        1 MOL      0.094678
    121 H54        -1.0430   -1.2270    0.5200 hn        1 MOL      0.254433
    122 H55         0.5400   -1.7650    1.1640 hn        1 MOL      0.254433
    123 N12         1.7280    1.4770   -3.0020 n         1 MOL     -0.261141
    124 C39         3.1160    1.9600   -3.0770 c3        1 MOL      0.026934
    125 C40         3.7130    2.2280   -1.6380 c         1 MOL      0.679211
    126 O19         3.0040    2.2480   -0.6110 o         1 MOL     -0.506801
    127 C41         3.1200    3.2110   -3.9630 c3        1 MOL     -0.207622
    128 C42         2.4430    4.4900   -3.5230 ca        1 MOL      0.033899
    129 C43         3.2440    5.4950   -2.9120 ca        1 MOL     -0.091339
    130 C44         1.1710    4.8240   -3.8850 ca        1 MOL     -0.091339
    131 C45         2.6940    6.7390   -2.5450 ca        1 MOL     -0.253908
    132 C46         0.6080    6.0560   -3.5820 ca        1 MOL     -0.253908
    133 C47         1.3640    7.0500   -2.8660 ca        1 MOL      0.265342
    134 O20         0.8730    8.2920   -2.4940 oh        1 MOL     -0.445354
    135 H56         1.0280    2.1760   -2.8300 hn        1 MOL      0.155744
    136 H57         3.7010    1.1640   -3.5420 h1        1 MOL      0.092119
    137 H58         2.5760    2.9270   -4.8630 hc        1 MOL      0.075730
    138 H59         4.1850    3.3990   -4.0920 hc        1 MOL      0.075730
    139 H60         4.2330    5.2530   -2.5720 ha        1 MOL      0.117858
    140 H61         0.5650    4.0940   -4.3940 ha        1 MOL      0.117858
    141 H62         3.2390    7.3800   -1.8660 ha        1 MOL      0.152577
    142 H63        -0.3980    6.3050   -3.8980 ha        1 MOL      0.152577
    143 H64        -0.0500    8.3750   -2.7780 ho        1 MOL      0.334339
    144 N13         5.0130    2.4260   -1.5070 n         1 MOL     -0.745231
    145 C48         5.6590    2.8010   -0.2420 c3        1 MOL      0.057066
    146 C49         6.7760    1.8220    0.0450 c         1 MOL      0.527805
    147 O21         7.9140    1.9910   -0.4270 o         1 MOL     -0.495387
    148 C50         6.2860    4.1870   -0.3360 c3        1 MOL      0.370903
    149 C51         6.6400    4.6570    1.0740 c3        1 MOL     -0.390251
    150 C52         7.3820    5.9910    1.1320 c         1 MOL      0.748010
    151 O22         7.0490    6.9130    0.3920 o         1 MOL     -0.742749
    152 O23         8.4390    6.1040    1.8140 o         1 MOL     -0.742749
    153 H65         5.6960    2.4450   -2.2410 hn        1 MOL      0.342915
    154 H66         4.9130    2.7880    0.5520 h1        1 MOL      0.043966
    155 H67         5.5240    4.8600   -0.7040 hc        1 MOL     -0.048849
    156 H68         7.1420    4.2420   -1.0160 hc        1 MOL     -0.048849
    157 H69         7.2220    3.8690    1.5440 hc        1 MOL      0.040902
    158 H70         5.6850    4.7880    1.5830 hc        1 MOL      0.040902
    159 N14         6.4360    0.7320    0.7040 n         1 MOL     -0.316029
    160 C53         7.3290   -0.4100    0.6200 c3        1 MOL     -0.221504
    161 C54         7.5740   -1.0220   -0.7400 c         1 MOL      0.464563
    162 O24         8.7100   -1.2170   -1.1270 o         1 MOL     -0.530364
    163 C55         6.9440   -1.4700    1.6010 c3        1 MOL      0.124888
    164 C56         6.7720   -1.0360    3.0950 c3        1 MOL     -0.229839
    165 C57         5.2520   -0.6940    3.4740 c         1 MOL      0.749884
    166 O25         4.5110   -1.4690    4.1370 o         1 MOL     -0.762750
    167 O26         4.7370    0.3360    3.0480 o         1 MOL     -0.762750
    168 H71         5.4490    0.5660    0.8720 hn        1 MOL      0.183114
    169 H72         8.2550    0.0140    1.0200 h1        1 MOL      0.131875
    170 H73         7.7110   -2.2410    1.6330 hc        1 MOL      0.023084
    171 H74         6.1240   -2.0790    1.2270 hc        1 MOL      0.023084
    172 H75         7.3740   -0.1520    3.2910 hc        1 MOL      0.055018
    173 H76         7.1310   -1.7970    3.7900 hc        1 MOL      0.055018
    174 N15         6.5080   -1.2330   -1.5080 n         1 MOL     -0.164793
    175 C58         6.5420   -1.8810   -2.8450 c3        1 MOL     -0.261200
    176 H77         6.6450   -2.9590   -2.7230 h1        1 MOL      0.105980
    177 H78         5.6160   -1.6630   -3.3790 h1        1 MOL      0.105980
    178 H79         7.3890   -1.4980   -3.4140 h1        1 MOL      0.105980
    179 H80         5.5920   -0.9070   -1.2440 hn        1 MOL      0.248552
    180 Ca1         2.3100   -0.1190    3.7280 Ca        1 MOL      1.689531
    181 O27        -0.4040   -0.0330    3.1630 oh        1 MOL     -0.805733
    182 H81        -1.2490    0.4040    3.0130 ho        1 MOL      0.400473
    183 H82        -0.6300   -0.9560    3.3040 ho        1 MOL      0.400473
    184 O28         0.6550   -0.9880    5.7820 oh        1 MOL     -0.805733
    185 H83         0.5540   -1.6160    6.4930 ho        1 MOL      0.400473
    186 H84        -0.0930   -0.3990    5.8690 ho        1 MOL      0.400473
    187 O29         3.4570    0.9330    6.1710 oh        1 MOL     -0.805733
    188 H85         3.2150    0.6180    7.0370 ho        1 MOL      0.400473
    189 H86         3.6820    1.8530    6.3090 ho        1 MOL      0.400473
    190 O30         1.4190    2.4330    3.4530 oh        1 MOL     -0.805733
    191 H87         1.7730    3.0910    2.8600 ho        1 MOL      0.400473
    192 H88         1.1870    2.9290    4.2430 ho        1 MOL      0.400473
    193 O31         2.1100    0.5470    1.1180 oh        1 MOL     -0.805733
    194 H89         2.4350   -0.1940    0.5990 ho        1 MOL      0.400473
    195 H90         2.4250    1.3230    0.6520 ho        1 MOL      0.400473
@<TRIPOS>BOND
     1    1    2 1   
     2    1    4 1   
     3    1    5 1   
     4    1    6 1   
     5    2    3 2   
     6    2    7 1   
     7    7    8 1   
     8    7   15 1   
     9    8    9 1   
    10    8   11 1   
    11    8   16 1   
    12    9   10 2   
    13    9   19 1   
    14   11   12 1   
    15   11   17 1   
    16   11   18 1   
    17   12   13 1   
    18   12   14 1   
    19   19   20 1   
    20   19   27 1   
    21   20   21 1   
    22   20   23 1   
    23   20   28 1   
    24   21   22 2   
    25   21   38 1   
    26   23   24 1   
    27   23   25 1   
    28   23   29 1   
    29   24   26 1   
    30   24   30 1   
    31   24   31 1   
    32   25   32 1   
    33   25   33 1   
    34   25   34 1   
    35   26   35 1   
    36   26   36 1   
    37   26   37 1   
    38   38   39 1   
    39   38   46 1   
    40   39   40 1   
    41   39   42 1   
    42   39   47 1   
    43   40   41 2   
    44   40   50 1   
    45   42   43 1   
    46   42   48 1   
    47   42   49 1   
    48   43   44 1   
    49   43   45 1   
    50   50   51 1   
    51   50   54 1   
    52   51   52 1   
    53   51   55 1   
    54   51   56 1   
    55   52   53 2   
    56   52   57 1   
    57   57   58 1   
    58   57   65 1   
    59   58   59 1   
    60   58   61 1   
    61   58   66 1   
    62   59   60 2   
    63   59   69 1   
    64   61   62 1   
    65   61   67 1   
    66   61   68 1   
    67   62   63 1   
    68   62   64 1   
    69   69   70 1   
    70   69   73 1   
    71   70   71 1   
    72   70   74 1   
    73   70   75 1   
    74   71   72 2   
    75   71   76 1   
    76   76   77 1   
    77   76   85 1   
    78   77   78 1   
    79   77   80 1   
    80   77   86 1   
    81   78   79 2   
    82   78   93 1   
    83   80   81 1   
    84   80   87 1   
    85   80   88 1   
    86   81   82 1   
    87   81   89 1   
    88   81   90 1   
    89   82   83 1   
    90   82   84 2   
    91   83   91 1   
    92   83   92 1   
    93   93   94 1   
    94   93  100 1   
    95   94   95 1   
    96   94   97 1   
    97   94  101 1   
    98   95   96 2   
    99   95  109 1   
   100   97   98 1   
   101   97   99 1   
   102   97  102 1   
   103   98  103 1   
   104   98  104 1   
   105   98  105 1   
   106   99  106 1   
   107   99  107 1   
   108   99  108 1   
   109  109  110 1   
   110  109  117 1   
   111  110  111 1   
   112  110  113 1   
   113  110  118 1   
   114  111  112 2   
   115  111  123 1   
   116  113  114 1   
   117  113  119 1   
   118  113  120 1   
   119  114  115 1   
   120  114  116 2   
   121  115  121 1   
   122  115  122 1   
   123  123  124 1   
   124  123  135 1   
   125  124  125 1   
   126  124  127 1   
   127  124  136 1   
   128  125  126 2   
   129  125  144 1   
   130  127  128 1   
   131  127  137 1   
   132  127  138 1   
   133  128  129 ar  
   134  128  130 ar  
   135  129  131 ar  
   136  129  139 1   
   137  130  132 ar  
   138  130  140 1   
   139  131  133 ar  
   140  131  141 1   
   141  132  133 ar  
   142  132  142 1   
   143  133  134 1   
   144  134  143 1   
   145  144  145 1   
   146  144  153 1   
   147  145  146 1   
   148  145  148 1   
   149  145  154 1   
   150  146  147 2   
   151  146  159 1   
   152  148  149 1   
   153  148  155 1   
   154  148  156 1   
   155  149  150 1   
   156  149  157 1   
   157  149  158 1   
   158  150  151 1   
   159  150  152 1   
   160  159  160 1   
   161  159  168 1   
   162  160  161 1   
   163  160  163 1   
   164  160  169 1   
   165  161  162 2   
   166  161  174 1   
   167  163  164 1   
   168  163  170 1   
   169  163  171 1   
   170  164  165 1   
   171  164  172 1   
   172  164  173 1   
   173  165  166 1   
   174  165  167 1   
   175  174  175 1   
   176  174  179 1   
   177  175  176 1   
   178  175  177 1   
   179  175  178 1   
   180  181  182 1   
   181  181  183 1   
   182  184  185 1   
   183  184  186 1   
   184  187  188 1   
   185  187  189 1   
   186  190  191 1   
   187  190  192 1   
   188  193  194 1   
   189  193  195 1   
@<TRIPOS>SUBSTRUCTURE
     1 MOL         1 TEMP              0 ****  ****    0 ROOT
