@<TRIPOS>MOLECULE
MOL
  175   173     1     0     0
SMALL
resp


@<TRIPOS>ATOM
      1 C1         -6.5820    8.0450    1.6890 c3        1 MOL     -0.347817
      2 C2         -7.6360    7.1550    0.9180 c         1 MOL      0.614240
      3 O1         -8.0340    7.5530   -0.1920 o         1 MOL     -0.551978
      4 H1         -6.9590    8.2730    2.6860 hc        1 MOL      0.083558
      5 H2         -5.6400    7.5030    1.7720 hc        1 MOL      0.083558
      6 H3         -6.4210    8.9740    1.1420 hc        1 MOL      0.083558
      7 N1         -8.1090    5.9950    1.4350 n         1 MOL     -0.414920
      8 C3         -9.0020    5.0720    0.6000 c3        1 MOL     -0.098085
      9 C4         -8.1560    4.3310   -0.5090 c         1 MOL      0.594970
     10 O2         -8.6730    4.2060   -1.6190 o         1 MOL     -0.545938
     11 C5         -9.5930    4.0690    1.5840 c3        1 MOL     -0.166961
     12 C6        -10.5980    3.1180    0.9940 c         1 MOL      0.788294
     13 O3        -11.7970    3.3560    1.1860 o         1 MOL     -0.753975
     14 O4        -10.2110    2.0290    0.5970 o         1 MOL     -0.753975
     15 H4         -7.8240    5.6870    2.3560 hn        1 MOL      0.261568
     16 H5         -9.9390    5.4860    0.2110 h1        1 MOL      0.121358
     17 H6        -10.0750    4.5750    2.4160 hc        1 MOL      0.015345
     18 H7         -8.8180    3.4300    2.0210 hc        1 MOL      0.015345
     19 N2         -6.8910    4.0150   -0.2620 n         1 MOL     -0.497225
     20 C7         -5.8890    3.1730   -0.9970 c3        1 MOL      0.283264
     21 C8         -5.0360    2.4190    0.0360 c         1 MOL      0.486086
     22 O5         -4.5040    3.0150    0.9380 o         1 MOL     -0.538777
     23 C9         -5.1080    4.0910   -1.9130 c3        1 MOL     -0.209250
     24 H8         -6.4410    4.3780    0.5680 hn        1 MOL      0.232593
     25 H9         -6.4870    2.4920   -1.6040 h1        1 MOL      0.021800
     26 H10        -4.5360    4.7710   -1.2820 hc        1 MOL      0.061818
     27 H11        -4.5120    3.5050   -2.6140 hc        1 MOL      0.061818
     28 H12        -5.8170    4.6830   -2.4920 hc        1 MOL      0.061818
     29 N3         -4.8440    1.1330   -0.0750 n         1 MOL     -0.401725
     30 C10        -5.2520    0.2370   -1.1660 c3        1 MOL     -0.050092
     31 C11        -5.4260   -1.1890   -0.5680 c         1 MOL      0.423064
     32 O6         -4.5920   -1.5190    0.3450 o         1 MOL     -0.477264
     33 C12        -4.2220    0.2190   -2.2480 c3        1 MOL     -0.135741
     34 C13        -2.7570   -0.1150   -1.9120 c         1 MOL      0.737524
     35 O7         -2.3090   -1.1560   -2.4200 o         1 MOL     -0.761111
     36 O8         -2.0490    0.4380   -1.0410 o         1 MOL     -0.761111
     37 H13        -4.2920    0.6780    0.6370 hn        1 MOL      0.303945
     38 H14        -6.2070    0.4940   -1.6310 h1        1 MOL      0.081363
     39 H15        -4.1020    1.2010   -2.7120 hc        1 MOL      0.027476
     40 H16        -4.6040   -0.4930   -2.9800 hc        1 MOL      0.027476
     41 N4         -6.4440   -1.8910   -1.0290 n         1 MOL     -0.299164
     42 C14        -6.9070   -3.2590   -0.6440 c3        1 MOL     -0.020339
     43 C15        -6.6070   -4.3430   -1.6830 c         1 MOL      0.580737
     44 O9         -7.5540   -4.6840   -2.3640 o         1 MOL     -0.564867
     45 H17        -6.9820   -1.4940   -1.7780 hn        1 MOL      0.301790
     46 H18        -7.9650   -3.2230   -0.3880 h1        1 MOL      0.074911
     47 H19        -6.3780   -3.5310    0.2710 h1        1 MOL      0.074911
     48 N5         -5.4110   -4.9590   -1.8640 n         1 MOL     -0.589336
     49 C16        -4.1200   -4.4620   -1.3250 c3        1 MOL      0.231855
     50 C17        -3.7530   -5.1350   -0.0350 c         1 MOL      0.484961
     51 O10        -3.6390   -6.3820    0.0020 o         1 MOL     -0.538820
     52 C18        -3.0430   -4.6270   -2.4550 c3        1 MOL     -0.439947
     53 C19        -1.7340   -4.0890   -2.0660 c         1 MOL      0.852064
     54 N6         -0.8000   -4.2290   -2.9310 n         1 MOL     -0.910911
     55 O11        -1.5550   -3.6070   -0.9980 o         1 MOL     -0.618941
     56 H20        -5.4200   -5.6050   -2.6400 hn        1 MOL      0.335112
     57 H21        -4.2340   -3.4260   -1.0250 h1        1 MOL      0.061170
     58 H22        -3.3610   -4.0710   -3.3440 hc        1 MOL      0.125242
     59 H23        -2.9090   -5.7000   -2.5960 hc        1 MOL      0.125242
     60 H24        -0.9810   -4.6090   -3.8520 hn        1 MOL      0.376146
     61 H25         0.1740   -4.0810   -2.7070 hn        1 MOL      0.376146
     62 N7         -3.6830   -4.3030    0.9840 n         1 MOL     -0.278923
     63 C20        -3.3300   -4.7670    2.3260 c3        1 MOL      0.017492
     64 C21        -1.9030   -5.3560    2.6310 c         1 MOL      0.466852
     65 O12        -1.7740   -6.2190    3.4500 o         1 MOL     -0.568715
     66 H26        -3.8660   -3.3200    0.9160 hn        1 MOL      0.207966
     67 H27        -4.0870   -5.4340    2.7270 h1        1 MOL      0.022727
     68 H28        -3.4050   -3.8700    2.9400 h1        1 MOL      0.022727
     69 N8         -0.9700   -4.9840    1.8490 n         1 MOL     -0.104577
     70 C22         0.5070   -5.2310    1.9950 c3        1 MOL     -0.258558
     71 C23         1.2870   -3.9250    1.8360 c         1 MOL      0.541975
     72 O13         0.9540   -3.0600    1.0070 o         1 MOL     -0.533951
     73 C24         0.9490   -6.1640    0.8920 c3        1 MOL      0.278127
     74 C25         0.3520   -7.5540    1.3360 c3        1 MOL     -0.450933
     75 O14         0.4840   -5.9370   -0.4340 oh        1 MOL     -0.627853
     76 H29        -1.1980   -4.3300    1.1120 hn        1 MOL      0.216206
     77 H30         0.7320   -5.6690    2.9660 h1        1 MOL      0.127863
     78 H31         2.0240   -6.2390    0.7660 h1        1 MOL      0.063593
     79 H32         1.1740   -5.4580   -0.9060 ho        1 MOL      0.490821
     80 H33         0.7410   -8.3980    0.7680 hc        1 MOL      0.118631
     81 H34         0.6000   -7.9460    2.3250 hc        1 MOL      0.118631
     82 H35        -0.7370   -7.5610    1.2380 hc        1 MOL      0.118631
     83 N9          2.4500   -3.8530    2.4620 n         1 MOL     -0.488378
     84 C26         3.4270   -2.7190    2.2390 c3        1 MOL     -0.006687
     85 C27         4.0960   -3.0930    0.9130 c         1 MOL      0.568692
     86 O15         4.7820   -4.0980    0.8040 o         1 MOL     -0.557292
     87 C28         4.3480   -2.7010    3.4370 c3        1 MOL      0.125470
     88 C29         5.4790   -1.6130    3.4760 c3        1 MOL     -0.205731
     89 C30         3.6110   -2.6880    4.7810 c3        1 MOL     -0.228044
     90 C31         4.8620   -0.1850    3.5290 c3        1 MOL     -0.038872
     91 H36         2.7980   -4.6550    2.9560 hn        1 MOL      0.304795
     92 H37         2.8740   -1.7870    2.1490 h1        1 MOL      0.138399
     93 H38         4.9200   -3.6280    3.4810 hc        1 MOL      0.010387
     94 H39         6.1840   -1.7410    2.6610 hc        1 MOL      0.057019
     95 H40         5.9910   -1.6340    4.4400 hc        1 MOL      0.057019
     96 H41         2.7950   -1.9560    4.8160 hc        1 MOL      0.061945
     97 H42         3.1690   -3.6420    5.0560 hc        1 MOL      0.061945
     98 H43         4.2290   -2.4430    5.6470 hc        1 MOL      0.061945
     99 H44         4.3090   -0.0440    2.6000 hc        1 MOL      0.012188
    100 H45         4.2060   -0.0000    4.3740 hc        1 MOL      0.012188
    101 H46         5.6040    0.6220    3.5090 hc        1 MOL      0.012188
    102 N10         3.9610   -2.2000   -0.0830 n         1 MOL     -0.496880
    103 C32         4.6550   -2.4050   -1.3760 c3        1 MOL      0.267753
    104 C33         5.6890   -1.3220   -1.6920 c         1 MOL      0.493429
    105 O16         6.6120   -1.5480   -2.4610 o         1 MOL     -0.565762
    106 C34         3.7170   -2.8380   -2.4780 c3        1 MOL     -0.232791
    107 C35         2.5180   -3.6820   -1.9930 c         1 MOL      0.787332
    108 O17         2.6760   -4.9370   -1.8230 o         1 MOL     -0.714731
    109 O18         1.4280   -3.1550   -1.7840 o         1 MOL     -0.714731
    110 H47         3.4700   -1.3250    0.0390 hn        1 MOL      0.183033
    111 H48         5.2530   -3.3140   -1.3130 h1        1 MOL      0.070736
    112 H49         4.2510   -3.4320   -3.2210 hc        1 MOL      0.019614
    113 H50         3.3670   -1.9120   -2.9280 hc        1 MOL      0.019614
    114 N11         5.7310   -0.2040   -0.9190 n         1 MOL     -0.517960
    115 C36         6.7310    0.8390   -1.0590 c3        1 MOL      0.346654
    116 C37         6.1000    2.2240   -0.7760 c         1 MOL      0.206331
    117 O19         5.6930    2.4150    0.3350 o         1 MOL     -0.396672
    118 C38         7.9490    0.5420   -0.1780 c3        1 MOL     -0.439673
    119 C39         8.9240    1.6990   -0.1630 ca        1 MOL      0.181877
    120 C40         9.2210    2.3470    1.0830 ca        1 MOL     -0.204947
    121 C41         9.6530    2.0990   -1.2960 ca        1 MOL     -0.204947
    122 C42        10.2660    3.2680    1.1760 ca        1 MOL     -0.103205
    123 C43        10.7020    3.0770   -1.2050 ca        1 MOL     -0.103205
    124 C44        11.0640    3.5620    0.0630 ca        1 MOL     -0.132892
    125 H51         4.9090   -0.0320   -0.3490 hn        1 MOL      0.341216
    126 H52         7.1420    0.8700   -2.0640 h1        1 MOL      0.023158
    127 H53         8.5240   -0.2940   -0.5660 hc        1 MOL      0.168909
    128 H54         7.6660    0.3970    0.8620 hc        1 MOL      0.168909
    129 H55         8.5370    2.1850    1.8960 ha        1 MOL      0.136075
    130 H56         9.4040    1.7090   -2.2750 ha        1 MOL      0.136075
    131 H57        10.6160    3.6510    2.1200 ha        1 MOL      0.106766
    132 H58        11.2710    3.4390   -2.0530 ha        1 MOL      0.106766
    133 H59        11.9100    4.2220    0.1540 ha        1 MOL      0.105640
    134 N12         6.0410    3.2120   -1.7440 n         1 MOL     -0.143455
    135 C45         5.7290    4.6220   -1.5220 c3        1 MOL      0.260872
    136 C46         4.4100    5.0290   -0.8140 c         1 MOL      0.235844
    137 O20         4.0360    6.1950   -0.7520 o         1 MOL     -0.498124
    138 C47         5.8260    5.3470   -2.8850 c3        1 MOL     -0.266985
    139 C48         6.6890    4.3570   -3.8110 c3        1 MOL      0.060667
    140 C49         6.4180    3.0200   -3.1450 c3        1 MOL     -0.024428
    141 H60         6.5180    4.9950   -0.8850 h1        1 MOL      0.041037
    142 H61         4.8060    5.5510   -3.2170 hc        1 MOL      0.098891
    143 H62         6.3750    6.2830   -2.7440 hc        1 MOL      0.098891
    144 H63         6.3720    4.3410   -4.8530 hc        1 MOL      0.011061
    145 H64         7.7430    4.6440   -3.7350 hc        1 MOL      0.011061
    146 H65         5.5540    2.5140   -3.5590 h1        1 MOL      0.045674
    147 H66         7.2950    2.3800   -3.2660 h1        1 MOL      0.045674
    148 N13         3.5690    4.1170   -0.2380 n         1 MOL     -0.098350
    149 C50         2.2760    4.4130    0.4960 c3        1 MOL     -0.259470
    150 C51         2.4730    5.0480    1.8790 c         1 MOL      0.567967
    151 O21         1.5930    5.7490    2.3660 o         1 MOL     -0.523166
    152 C52         1.4810    3.0980    0.6310 c3        1 MOL     -0.047951
    153 C53         2.1870    1.9870    1.3360 c3        1 MOL     -0.017712
    154 C54         1.6270    0.7160    0.8900 c         1 MOL      0.600339
    155 O22         0.5060    0.3550    1.2530 o         1 MOL     -0.679186
    156 O23         2.1980    0.0000   -0.0130 o         1 MOL     -0.679186
    157 H67         4.0230    3.2320   -0.0490 hn        1 MOL      0.066138
    158 H68         1.7100    5.1390   -0.0940 h1        1 MOL      0.179841
    159 H69         1.3990    2.8310   -0.4190 hc        1 MOL      0.088279
    160 H70         0.4940    3.2730    1.0620 hc        1 MOL      0.088279
    161 H71         2.0210    2.0260    2.4070 hc        1 MOL      0.015276
    162 H72         3.2710    1.9610    1.2830 hc        1 MOL      0.015276
    163 N14         3.6450    4.8800    2.6280 n         1 MOL     -0.318163
    164 C55         3.7800    5.4090    4.0170 c3        1 MOL     -0.112703
    165 H73         2.8740    5.9510    4.2890 h1        1 MOL      0.074717
    166 H74         3.9290    4.5800    4.7100 h1        1 MOL      0.074717
    167 H75         4.6340    6.0840    4.0690 h1        1 MOL      0.074717
    168 H76         4.3490    4.2630    2.2500 hn        1 MOL      0.229787
    169 Ca1        -0.0700   -1.3920   -0.6820 Ca        1 MOL      1.712508
    170 O24         0.7920    0.1980   -2.5780 oh        1 MOL     -0.818986
    171 H77         1.3350    0.8900   -2.9550 ho        1 MOL      0.399022
    172 H78         0.4430   -0.2720   -3.3440 ho        1 MOL      0.399022
    173 O25        -1.9940   -1.8400    1.4270 oh        1 MOL     -0.818986
    174 H79        -1.9010   -0.9970    1.8630 ho        1 MOL      0.399022
    175 H80        -2.8520   -1.8060    1.0020 ho        1 MOL      0.399022
@<TRIPOS>BOND
     1    1    2 1   
     2    1    4 1   
     3    1    5 1   
     4    1    6 1   
     5    2    3 2   
     6    2    7 1   
     7    7    8 1   
     8    7   15 1   
     9    8    9 1   
    10    8   11 1   
    11    8   16 1   
    12    9   10 2   
    13    9   19 1   
    14   11   12 1   
    15   11   17 1   
    16   11   18 1   
    17   12   13 1   
    18   12   14 1   
    19   19   20 1   
    20   19   24 1   
    21   20   21 1   
    22   20   23 1   
    23   20   25 1   
    24   21   22 2   
    25   21   29 1   
    26   23   26 1   
    27   23   27 1   
    28   23   28 1   
    29   29   30 1   
    30   29   37 1   
    31   30   31 1   
    32   30   33 1   
    33   30   38 1   
    34   31   32 2   
    35   31   41 1   
    36   33   34 1   
    37   33   39 1   
    38   33   40 1   
    39   34   35 1   
    40   34   36 1   
    41   41   42 1   
    42   41   45 1   
    43   42   43 1   
    44   42   46 1   
    45   42   47 1   
    46   43   44 2   
    47   43   48 1   
    48   48   49 1   
    49   48   56 1   
    50   49   50 1   
    51   49   52 1   
    52   49   57 1   
    53   50   51 2   
    54   50   62 1   
    55   52   53 1   
    56   52   58 1   
    57   52   59 1   
    58   53   54 1   
    59   53   55 2   
    60   54   60 1   
    61   54   61 1   
    62   62   63 1   
    63   62   66 1   
    64   63   64 1   
    65   63   67 1   
    66   63   68 1   
    67   64   65 2   
    68   64   69 1   
    69   69   70 1   
    70   69   76 1   
    71   70   71 1   
    72   70   73 1   
    73   70   77 1   
    74   71   72 2   
    75   71   83 1   
    76   73   74 1   
    77   73   75 1   
    78   73   78 1   
    79   74   80 1   
    80   74   81 1   
    81   74   82 1   
    82   75   79 1   
    83   83   84 1   
    84   83   91 1   
    85   84   85 1   
    86   84   87 1   
    87   84   92 1   
    88   85   86 2   
    89   85  102 1   
    90   87   88 1   
    91   87   89 1   
    92   87   93 1   
    93   88   90 1   
    94   88   94 1   
    95   88   95 1   
    96   89   96 1   
    97   89   97 1   
    98   89   98 1   
    99   90   99 1   
   100   90  100 1   
   101   90  101 1   
   102  102  103 1   
   103  102  110 1   
   104  103  104 1   
   105  103  106 1   
   106  103  111 1   
   107  104  105 2   
   108  104  114 1   
   109  106  107 1   
   110  106  112 1   
   111  106  113 1   
   112  107  108 1   
   113  107  109 1   
   114  114  115 1   
   115  114  125 1   
   116  115  116 1   
   117  115  118 1   
   118  115  126 1   
   119  116  117 2   
   120  116  134 1   
   121  118  119 1   
   122  118  127 1   
   123  118  128 1   
   124  119  120 ar  
   125  119  121 ar  
   126  120  122 ar  
   127  120  129 1   
   128  121  123 ar  
   129  121  130 1   
   130  122  124 ar  
   131  122  131 1   
   132  123  124 ar  
   133  123  132 1   
   134  124  133 1   
   135  134  135 1   
   136  134  140 1   
   137  135  136 1   
   138  135  138 1   
   139  135  141 1   
   140  136  137 2   
   141  136  148 1   
   142  138  139 1   
   143  138  142 1   
   144  138  143 1   
   145  139  140 1   
   146  139  144 1   
   147  139  145 1   
   148  140  146 1   
   149  140  147 1   
   150  148  149 1   
   151  148  157 1   
   152  149  150 1   
   153  149  152 1   
   154  149  158 1   
   155  150  151 2   
   156  150  163 1   
   157  152  153 1   
   158  152  159 1   
   159  152  160 1   
   160  153  154 1   
   161  153  161 1   
   162  153  162 1   
   163  154  155 1   
   164  154  156 1   
   165  163  164 1   
   166  163  168 1   
   167  164  165 1   
   168  164  166 1   
   169  164  167 1   
   170  170  171 1   
   171  170  172 1   
   172  173  174 1   
   173  173  175 1   
@<TRIPOS>SUBSTRUCTURE
     1 MOL         1 TEMP              0 ****  ****    0 ROOT
