@<TRIPOS>MOLECULE
MOL
  185   180     1     0     0
SMALL
resp


@<TRIPOS>ATOM
      1 C1         -5.2440    1.5890   -3.7100 c3        1 MOL     -0.467398
      2 C2         -6.2570    1.4000   -2.5030 c         1 MOL      0.701432
      3 O1         -5.8830    1.5400   -1.3480 o         1 MOL     -0.524248
      4 H1         -5.1270    0.6420   -4.2370 hc        1 MOL      0.125899
      5 H2         -5.6330    2.3410   -4.3970 hc        1 MOL      0.125899
      6 H3         -4.2760    1.9120   -3.3270 hc        1 MOL      0.125899
      7 N1         -7.5520    1.0480   -2.7840 n         1 MOL     -0.764343
      8 C3         -8.7000    1.0780   -1.8090 c3        1 MOL      0.333605
      9 C4         -8.6180    0.2300   -0.4920 c         1 MOL      0.405571
     10 O2         -9.1440    0.6200    0.5330 o         1 MOL     -0.470398
     11 C5         -9.1360    2.5530   -1.5880 c3        1 MOL     -0.418030
     12 C6        -10.6540    2.7000   -1.2180 c         1 MOL      0.762069
     13 O3        -11.5240    2.1860   -1.9290 o         1 MOL     -0.678793
     14 O4        -11.0020    3.3290   -0.2400 o         1 MOL     -0.678793
     15 H4         -7.8160    1.2230   -3.7510 hn        1 MOL      0.369508
     16 H5         -9.5470    0.6140   -2.3190 h1        1 MOL     -0.024769
     17 H6         -9.0890    3.0860   -2.5370 hc        1 MOL      0.114625
     18 H7         -8.5700    3.0230   -0.7850 hc        1 MOL      0.114625
     19 N2         -7.8870   -0.8200   -0.5640 n         1 MOL     -0.372553
     20 C7         -7.7570   -1.8270    0.5310 c3        1 MOL      0.101113
     21 C8         -6.3010   -2.3810    0.6800 c         1 MOL      0.642695
     22 O5         -6.0430   -3.5290    1.0420 o         1 MOL     -0.586479
     23 C9         -8.8200   -2.9560    0.3440 c3        1 MOL     -0.155786
     24 C10       -10.2910   -2.6150    0.1630 c3        1 MOL      0.040646
     25 C11       -11.1730   -3.8810   -0.1540 c3        1 MOL     -0.123015
     26 C12       -12.5800   -3.3140   -0.4430 c3        1 MOL      0.129089
     27 N3        -13.4800   -4.4450   -0.7860 n4        1 MOL     -0.281508
     28 H8         -7.2830   -0.9250   -1.3640 hn        1 MOL      0.243428
     29 H9         -7.9380   -1.4330    1.5400 h1        1 MOL      0.077285
     30 H10        -8.7610   -3.6830    1.1610 hc        1 MOL      0.033517
     31 H11        -8.5400   -3.4870   -0.5690 hc        1 MOL      0.033517
     32 H12       -10.4270   -1.8210   -0.5720 hc        1 MOL      0.054653
     33 H13       -10.6820   -2.1880    1.0880 hc        1 MOL      0.054653
     34 H14       -11.2340   -4.5620    0.6970 hc        1 MOL      0.051943
     35 H15       -10.8960   -4.3200   -1.1090 hc        1 MOL      0.051943
     36 H16       -12.5070   -2.4700   -1.1270 hx        1 MOL      0.056186
     37 H17       -12.8670   -2.9010    0.5200 hx        1 MOL      0.056186
     38 H18       -13.0260   -5.1170   -1.3850 hn        1 MOL      0.259384
     39 H19       -13.8680   -4.9180    0.0160 hn        1 MOL      0.259384
     40 H20       -14.2960   -4.1000   -1.2650 hn        1 MOL      0.259384
     41 N4         -5.3870   -1.4750    0.4000 n         1 MOL     -0.609135
     42 C13        -3.9360   -1.8060    0.3520 c3        1 MOL      0.166230
     43 C14        -3.5220   -2.1680    1.7770 c         1 MOL      0.644190
     44 O6         -3.8880   -1.4740    2.7360 o         1 MOL     -0.522346
     45 C15        -3.0960   -0.6280   -0.0210 c3        1 MOL     -0.263621
     46 C16        -1.5780   -0.9580   -0.1980 c         1 MOL      0.458884
     47 O7         -0.7520   -0.7870    0.7020 o         1 MOL     -0.645423
     48 O8         -1.2420   -1.6190   -1.2140 o         1 MOL     -0.645423
     49 H21        -5.7410   -0.5840    0.0860 hn        1 MOL      0.323686
     50 H22        -3.7220   -2.7140   -0.2190 h1        1 MOL      0.037891
     51 H23        -3.2750    0.0910    0.7690 hc        1 MOL      0.121447
     52 H24        -3.4510   -0.1510   -0.9420 hc        1 MOL      0.121447
     53 N5         -2.7090   -3.2810    1.8580 n         1 MOL     -0.348341
     54 C17        -2.2480   -3.8440    3.1760 c3        1 MOL     -0.263059
     55 C18        -1.4750   -2.8690    4.0870 c         1 MOL      0.564829
     56 O9         -1.3210   -3.0360    5.2970 o         1 MOL     -0.564773
     57 H25        -2.4340   -3.7860    1.0360 hn        1 MOL      0.235903
     58 H26        -1.5290   -4.6390    2.9900 h1        1 MOL      0.139280
     59 H27        -3.1420   -4.1750    3.7070 h1        1 MOL      0.139280
     60 N6         -0.8170   -1.8960    3.4790 n         1 MOL     -0.318730
     61 C19         0.0970   -0.9000    4.1770 c3        1 MOL     -0.067372
     62 C20        -0.2660    0.5780    3.8080 c         1 MOL      0.440130
     63 O10         0.5370    1.4620    3.9910 o         1 MOL     -0.504085
     64 C21         1.5730   -1.2670    3.8850 c3        1 MOL     -0.125176
     65 C22         2.1480   -0.9710    2.5060 c         1 MOL      0.417447
     66 N7          2.5680    0.2920    2.2490 n         1 MOL     -0.579013
     67 O11         2.4930   -1.8400    1.7130 o         1 MOL     -0.474450
     68 H28        -0.9990   -1.7780    2.4940 hn        1 MOL      0.264555
     69 H29        -0.0860   -0.8150    5.2430 h1        1 MOL      0.144413
     70 H30         1.7110   -2.3340    4.0540 hc        1 MOL      0.094627
     71 H31         2.1380   -0.7910    4.6800 hc        1 MOL      0.094627
     72 H32         2.2030    1.0230    2.8460 hn        1 MOL      0.291454
     73 H33         3.2630    0.5490    1.5620 hn        1 MOL      0.291454
     74 N8         -1.4750    0.8950    3.3780 n         1 MOL     -0.148900
     75 C23        -1.8600    2.2940    3.0820 c3        1 MOL     -0.360067
     76 C24        -1.2360    2.9870    1.8450 c         1 MOL      0.579408
     77 O12        -1.2220    4.1990    1.8400 o         1 MOL     -0.502485
     78 H34        -2.1670    0.1650    3.2430 hn        1 MOL      0.155018
     79 H35        -1.6550    2.8730    3.9780 h1        1 MOL      0.166584
     80 H36        -2.9440    2.2680    2.9560 h1        1 MOL      0.166584
     81 N9         -0.6730    2.2030    0.8860 n         1 MOL     -0.554218
     82 C25         0.0830    2.8550   -0.1950 c3        1 MOL      0.456075
     83 C26         1.2900    2.0250   -0.5950 c         1 MOL      0.354772
     84 O13         1.2750    0.7680   -0.7230 o         1 MOL     -0.558932
     85 C27        -0.7830    3.1630   -1.4800 c3        1 MOL     -0.033944
     86 C28        -1.6670    4.3830   -1.4060 ca        1 MOL     -0.099306
     87 C29        -2.9410    4.1590   -0.8330 ca        1 MOL     -0.084577
     88 C30        -1.2600    5.7410   -1.7530 ca        1 MOL     -0.084577
     89 C31        -3.7180    5.3050   -0.4870 ca        1 MOL     -0.301090
     90 C32        -2.0490    6.8370   -1.3790 ca        1 MOL     -0.301090
     91 C33        -3.2740    6.5970   -0.7250 ca        1 MOL      0.425607
     92 O14        -4.0080    7.6290   -0.2600 oh        1 MOL     -0.535424
     93 H37        -0.7850    1.2030    0.9690 hn        1 MOL      0.344184
     94 H38         0.4360    3.8450    0.1050 h1        1 MOL     -0.031950
     95 H39        -1.3660    2.2610   -1.6630 hc        1 MOL      0.027117
     96 H40        -0.0840    3.2900   -2.3100 hc        1 MOL      0.027117
     97 H41        -3.2460    3.1660   -0.5640 ha        1 MOL      0.102382
     98 H42        -0.2380    5.8620   -2.0830 ha        1 MOL      0.102382
     99 H43        -4.5030    5.1720    0.2390 ha        1 MOL      0.162544
    100 H44        -1.6900    7.8500   -1.5230 ha        1 MOL      0.162544
    101 H45        -4.8410    7.3680    0.1500 ho        1 MOL      0.394681
    102 N10         2.4170    2.6570   -0.7810 n         1 MOL     -0.595281
    103 C34         3.6940    2.1030   -1.2060 c3        1 MOL      0.096028
    104 C35         4.5260    1.9860    0.1080 c         1 MOL      0.457541
    105 O15         4.9410    0.8930    0.4460 o         1 MOL     -0.422438
    106 C36         4.2080    3.0680   -2.2270 c3        1 MOL      0.078034
    107 C37         3.1810    3.1990   -3.4290 c3        1 MOL     -0.179429
    108 C38         5.6600    2.6780   -2.7080 c3        1 MOL     -0.557876
    109 C39         2.6040    1.9100   -4.0330 c3        1 MOL     -0.005200
    110 H46         2.3780    3.6670   -0.7840 hn        1 MOL      0.334203
    111 H47         3.6400    1.1460   -1.7270 h1        1 MOL      0.112793
    112 H48         4.2320    4.0430   -1.7350 hc        1 MOL      0.011443
    113 H49         3.7170    3.6570   -4.2610 hc        1 MOL      0.058588
    114 H50         2.3890    3.8130   -3.0140 hc        1 MOL      0.058588
    115 H51         6.3300    2.5230   -1.8700 hc        1 MOL      0.168111
    116 H52         5.4970    1.7800   -3.3100 hc        1 MOL      0.168111
    117 H53         6.0240    3.4510   -3.3910 hc        1 MOL      0.168111
    118 H54         1.8240    1.4240   -3.4400 hc        1 MOL      0.031150
    119 H55         2.1780    2.0350   -5.0370 hc        1 MOL      0.031150
    120 H56         3.3970    1.1870   -4.2450 hc        1 MOL      0.031150
    121 N11         4.7810    3.0660    0.8150 n         1 MOL     -0.379177
    122 C40         5.4830    3.0250    2.0960 c3        1 MOL      0.331687
    123 C41         6.8960    2.5350    1.9330 c         1 MOL      0.150251
    124 O16         7.5170    1.9610    2.8000 o         1 MOL     -0.414436
    125 C42         5.4620    4.4430    2.6080 c3        1 MOL      0.193096
    126 O17         4.1480    4.8350    2.8870 oh        1 MOL     -0.596199
    127 H57         4.5220    3.9980    0.5210 hn        1 MOL      0.246684
    128 H58         4.9710    2.3240    2.7630 h1        1 MOL      0.044863
    129 H59         5.9510    5.1020    1.8840 h1        1 MOL      0.013602
    130 H60         6.0670    4.4170    3.5090 h1        1 MOL      0.013602
    131 H61         4.2160    5.7940    2.8900 ho        1 MOL      0.407165
    132 N12         7.5630    2.8710    0.8060 n         1 MOL     -0.326712
    133 C43         8.8400    2.4310    0.2910 c3        1 MOL      0.212048
    134 C44         9.0680    0.9050    0.2370 c         1 MOL      0.311800
    135 O18        10.2150    0.3810    0.3800 o         1 MOL     -0.503227
    136 C45         9.9460    3.1310    1.1100 c3        1 MOL     -0.342643
    137 H62         6.9570    3.3270    0.1320 hn        1 MOL      0.196055
    138 H63         8.9450    2.7840   -0.7370 h1        1 MOL      0.049687
    139 H64         9.8070    2.9810    2.1750 hc        1 MOL      0.109312
    140 H65        10.9430    2.7510    0.8790 hc        1 MOL      0.109312
    141 H66        10.0350    4.2130    0.9550 hc        1 MOL      0.109312
    142 N13         7.9710    0.1520    0.2680 n         1 MOL     -0.147422
    143 C46         7.8940   -1.2950    0.5220 c3        1 MOL      0.382482
    144 C47         7.2710   -2.0940   -0.6330 c         1 MOL      0.383842
    145 O19         6.5310   -1.4670   -1.4180 o         1 MOL     -0.553684
    146 C48         7.1480   -1.4920    1.8880 c3        1 MOL     -0.247490
    147 H67         7.1160    0.6910    0.2420 hn        1 MOL      0.007020
    148 H68         8.9490   -1.5650    0.6160 h1        1 MOL     -0.020655
    149 H69         7.7100   -1.0240    2.7040 hc        1 MOL      0.082258
    150 H70         6.1930   -0.9910    1.8180 hc        1 MOL      0.082258
    151 H71         7.0590   -2.5380    2.1970 hc        1 MOL      0.082258
    152 N14         7.5460   -3.3690   -0.7680 n         1 MOL     -0.681774
    153 C49         6.9100   -4.2160   -1.7980 c3        1 MOL      0.059491
    154 C50         7.3810   -4.0000   -3.2580 c         1 MOL      0.474495
    155 O20         7.3010   -4.9160   -4.0210 o         1 MOL     -0.517998
    156 C51         5.4100   -4.2120   -1.6130 c3        1 MOL     -0.173971
    157 C52         5.0220   -4.5290   -0.1840 c3        1 MOL      0.037821
    158 C53         3.5050   -4.8830   -0.1020 c         1 MOL      0.568358
    159 O21         2.6940   -4.1530   -0.6950 o         1 MOL     -0.674302
    160 O22         3.1280   -5.9140    0.5350 o         1 MOL     -0.674302
    161 H72         8.0180   -3.8490   -0.0200 hn        1 MOL      0.391861
    162 H73         7.2020   -5.2410   -1.5290 h1        1 MOL      0.108551
    163 H74         5.0520   -5.0980   -2.1330 hc        1 MOL      0.077055
    164 H75         5.0010   -3.3750   -2.1750 hc        1 MOL      0.077055
    165 H76         5.2430   -3.6180    0.3850 hc        1 MOL     -0.002583
    166 H77         5.6300   -5.3380    0.2360 hc        1 MOL     -0.002583
    167 N15         7.9150   -2.8030   -3.5920 n         1 MOL     -0.179110
    168 C54         8.2810   -2.5620   -4.9170 c3        1 MOL     -0.228229
    169 H78         8.6550   -3.4830   -5.3630 h1        1 MOL      0.092598
    170 H79         7.4120   -2.2140   -5.4770 h1        1 MOL      0.092598
    171 H80         9.0610   -1.8020   -4.9470 h1        1 MOL      0.092598
    172 H81         8.0290   -2.1070   -2.8680 hn        1 MOL      0.248228
    173 Ca1         1.2520   -2.0200   -0.8210 Ca        1 MOL      1.789064
    174 O23         1.6840   -1.5630   -3.3920 oh        1 MOL     -0.904168
    175 H82         2.2900   -1.2280   -4.0530 ho        1 MOL      0.435092
    176 H83         0.9900   -1.9870   -3.8860 ho        1 MOL      0.435092
    177 O24         0.4550   -3.8710    1.0730 oh        1 MOL     -0.904168
    178 H84        -0.3450   -4.3690    0.8720 ho        1 MOL      0.435092
    179 H85         0.8800   -4.3770    1.7580 ho        1 MOL      0.435092
    180 O25         3.6400   -1.2910   -1.2120 oh        1 MOL     -0.904168
    181 H86         4.5020   -1.6370   -1.4140 ho        1 MOL      0.435092
    182 H87         3.7990   -0.5420   -0.6310 ho        1 MOL      0.435092
    183 O26         0.4180   -4.3060   -2.4810 oh        1 MOL     -0.904168
    184 H88         0.2380   -4.8260   -3.2630 ho        1 MOL      0.435092
    185 H89         0.8870   -4.8970   -1.8970 ho        1 MOL      0.435092
@<TRIPOS>BOND
     1    1    2 1   
     2    1    4 1   
     3    1    5 1   
     4    1    6 1   
     5    2    3 2   
     6    2    7 1   
     7    7    8 1   
     8    7   15 1   
     9    8    9 1   
    10    8   11 1   
    11    8   16 1   
    12    9   10 2   
    13    9   19 1   
    14   11   12 1   
    15   11   17 1   
    16   11   18 1   
    17   12   13 1   
    18   12   14 1   
    19   19   20 1   
    20   19   28 1   
    21   20   21 1   
    22   20   23 1   
    23   20   29 1   
    24   21   22 2   
    25   21   41 1   
    26   23   24 1   
    27   23   30 1   
    28   23   31 1   
    29   24   25 1   
    30   24   32 1   
    31   24   33 1   
    32   25   26 1   
    33   25   34 1   
    34   25   35 1   
    35   26   27 1   
    36   26   36 1   
    37   26   37 1   
    38   27   38 1   
    39   27   39 1   
    40   27   40 1   
    41   41   42 1   
    42   41   49 1   
    43   42   43 1   
    44   42   45 1   
    45   42   50 1   
    46   43   44 2   
    47   43   53 1   
    48   45   46 1   
    49   45   51 1   
    50   45   52 1   
    51   46   47 1   
    52   46   48 1   
    53   53   54 1   
    54   53   57 1   
    55   54   55 1   
    56   54   58 1   
    57   54   59 1   
    58   55   56 2   
    59   55   60 1   
    60   60   61 1   
    61   60   68 1   
    62   61   62 1   
    63   61   64 1   
    64   61   69 1   
    65   62   63 2   
    66   62   74 1   
    67   64   65 1   
    68   64   70 1   
    69   64   71 1   
    70   65   66 1   
    71   65   67 2   
    72   66   72 1   
    73   66   73 1   
    74   74   75 1   
    75   74   78 1   
    76   75   76 1   
    77   75   79 1   
    78   75   80 1   
    79   76   77 2   
    80   76   81 1   
    81   81   82 1   
    82   81   93 1   
    83   82   83 1   
    84   82   85 1   
    85   82   94 1   
    86   83   84 2   
    87   83  102 1   
    88   85   86 1   
    89   85   95 1   
    90   85   96 1   
    91   86   87 ar  
    92   86   88 ar  
    93   87   89 ar  
    94   87   97 1   
    95   88   90 ar  
    96   88   98 1   
    97   89   91 ar  
    98   89   99 1   
    99   90   91 ar  
   100   90  100 1   
   101   91   92 1   
   102   92  101 1   
   103  102  103 1   
   104  102  110 1   
   105  103  104 1   
   106  103  106 1   
   107  103  111 1   
   108  104  105 2   
   109  104  121 1   
   110  106  107 1   
   111  106  108 1   
   112  106  112 1   
   113  107  109 1   
   114  107  113 1   
   115  107  114 1   
   116  108  115 1   
   117  108  116 1   
   118  108  117 1   
   119  109  118 1   
   120  109  119 1   
   121  109  120 1   
   122  121  122 1   
   123  121  127 1   
   124  122  123 1   
   125  122  125 1   
   126  122  128 1   
   127  123  124 2   
   128  123  132 1   
   129  125  126 1   
   130  125  129 1   
   131  125  130 1   
   132  126  131 1   
   133  132  133 1   
   134  132  137 1   
   135  133  134 1   
   136  133  136 1   
   137  133  138 1   
   138  134  135 2   
   139  134  142 1   
   140  136  139 1   
   141  136  140 1   
   142  136  141 1   
   143  142  143 1   
   144  142  147 1   
   145  143  144 1   
   146  143  146 1   
   147  143  148 1   
   148  144  145 2   
   149  144  152 1   
   150  146  149 1   
   151  146  150 1   
   152  146  151 1   
   153  152  153 1   
   154  152  161 1   
   155  153  154 1   
   156  153  156 1   
   157  153  162 1   
   158  154  155 2   
   159  154  167 1   
   160  156  157 1   
   161  156  163 1   
   162  156  164 1   
   163  157  158 1   
   164  157  165 1   
   165  157  166 1   
   166  158  159 1   
   167  158  160 1   
   168  167  168 1   
   169  167  172 1   
   170  168  169 1   
   171  168  170 1   
   172  168  171 1   
   173  174  175 1   
   174  174  176 1   
   175  177  178 1   
   176  177  179 1   
   177  180  181 1   
   178  180  182 1   
   179  183  184 1   
   180  183  185 1   
@<TRIPOS>SUBSTRUCTURE
     1 MOL         1 TEMP              0 ****  ****    0 ROOT
