@<TRIPOS>MOLECULE
MOL
  192   187     1     0     0
SMALL
resp


@<TRIPOS>ATOM
      1 C1         10.3190    5.2920   -3.6740 c3        1 MOL     -0.384829
      2 C2         10.3530    4.3180   -2.5500 c         1 MOL      0.547899
      3 O1         11.3920    3.6070   -2.4560 o         1 MOL     -0.590033
      4 H1         10.8580    6.1950   -3.3890 hc        1 MOL      0.105889
      5 H2         10.7920    4.8500   -4.5520 hc        1 MOL      0.105889
      6 H3          9.2840    5.5440   -3.9050 hc        1 MOL      0.105889
      7 N1          9.4480    4.4060   -1.6050 n         1 MOL      0.030423
      8 C3          9.3250    3.5690   -0.4300 c3        1 MOL     -0.465437
      9 C4          8.3060    2.4180   -0.7080 c         1 MOL      0.445742
     10 O2          7.4130    2.6500   -1.4610 o         1 MOL     -0.617296
     11 C5          9.1900    4.3260    0.8870 c3        1 MOL      0.100960
     12 C6          8.1080    5.4820    0.8000 c         1 MOL      0.595025
     13 O3          8.1170    6.2410    1.8500 o         1 MOL     -0.668551
     14 O4          7.3200    5.5890   -0.1410 o         1 MOL     -0.668551
     15 H4          8.6950    5.0660   -1.6680 hn        1 MOL      0.051669
     16 H5         10.2420    2.9900   -0.3370 h1        1 MOL      0.101828
     17 H6         10.1820    4.7610    1.0750 hc        1 MOL      0.035187
     18 H7          8.9880    3.6180    1.6920 hc        1 MOL      0.035187
     19 N2          8.4820    1.2800   -0.1020 n         1 MOL     -0.065244
     20 C7          7.7360    0.0230   -0.2410 c3        1 MOL     -0.111117
     21 C8          6.4230   -0.0230    0.6090 c         1 MOL      0.539230
     22 O5          5.7100   -0.9940    0.4320 o         1 MOL     -0.505530
     23 C9          8.7030   -1.0690    0.2800 c3        1 MOL     -0.189260
     24 C10         9.4930   -1.6720   -0.8300 c3        1 MOL     -0.103327
     25 C11        10.2370   -2.9170   -0.5060 c3        1 MOL      0.134986
     26 C12        10.9070   -3.5320   -1.6960 c3        1 MOL     -0.054235
     27 N3         11.2330   -4.9250   -1.4260 n4        1 MOL     -0.109175
     28 H8          9.1920    1.3120    0.6210 hn        1 MOL      0.223361
     29 H9          7.4330   -0.1650   -1.2760 h1        1 MOL      0.120649
     30 H10         8.1710   -1.8490    0.8160 hc        1 MOL      0.079849
     31 H11         9.4690   -0.6060    0.9020 hc        1 MOL      0.079849
     32 H12        10.1530   -0.9110   -1.2460 hc        1 MOL      0.053321
     33 H13         8.7560   -1.9940   -1.5620 hc        1 MOL      0.053321
     34 H14         9.5000   -3.6230   -0.1130 hc        1 MOL      0.006727
     35 H15        10.9540   -2.9400    0.3160 hc        1 MOL      0.006727
     36 H16        11.8520   -2.9930   -1.6290 hx        1 MOL      0.071557
     37 H17        10.2150   -3.2990   -2.5050 hx        1 MOL      0.071557
     38 H18        12.0080   -4.9910   -0.7830 hn        1 MOL      0.237796
     39 H19        10.4490   -5.3970   -0.9950 hn        1 MOL      0.237796
     40 H20        11.5590   -5.3960   -2.2520 hn        1 MOL      0.237796
     41 N4          6.0540    0.9630    1.4340 n         1 MOL     -0.440210
     42 C13         4.8470    1.1150    2.2700 c3        1 MOL      0.095703
     43 C14         3.6550    1.4710    1.3720 c         1 MOL      0.477649
     44 O6          3.7190    2.2070    0.4290 o         1 MOL     -0.589013
     45 C15         5.0740    2.2060    3.3330 c3        1 MOL     -0.481185
     46 C16         5.4870    3.6050    2.7860 c         1 MOL      0.701277
     47 O7          5.8080    3.6870    1.6240 o         1 MOL     -0.614838
     48 O8          5.5850    4.5550    3.5880 o         1 MOL     -0.614838
     49 H21         6.6680    1.7700    1.4930 hn        1 MOL      0.232707
     50 H22         4.6160    0.1610    2.7350 h1        1 MOL      0.123356
     51 H23         5.8100    1.9240    4.0850 hc        1 MOL      0.136263
     52 H24         4.1330    2.3490    3.8560 hc        1 MOL      0.136263
     53 N5          2.4790    0.8550    1.6240 n         1 MOL     -0.295390
     54 C17         2.1880   -0.2060    2.6440 c3        1 MOL     -0.258971
     55 C18         2.8880   -1.5810    2.4180 c         1 MOL      0.508128
     56 O9          3.0050   -2.0210    1.2430 o         1 MOL     -0.515231
     57 H25         1.7290    1.1650    1.0180 hn        1 MOL      0.294648
     58 H26         1.1150   -0.4140    2.6260 h1        1 MOL      0.121916
     59 H27         2.4010    0.1870    3.6460 h1        1 MOL      0.121916
     60 N6          3.2750   -2.3470    3.4340 n         1 MOL     -0.262353
     61 C19         3.9970   -3.5310    3.2670 c3        1 MOL     -0.155244
     62 C20         3.1850   -4.7880    2.6920 c         1 MOL      0.526458
     63 O10         3.7660   -5.6350    2.0500 o         1 MOL     -0.532181
     64 C21         4.6040   -4.0310    4.5770 c3        1 MOL     -0.166126
     65 C22         3.5960   -4.5640    5.5970 c         1 MOL      0.626076
     66 O11         3.7960   -5.7110    6.1650 o         1 MOL     -0.648758
     67 O12         2.5080   -3.9210    5.8340 o         1 MOL     -0.648758
     68 H28         2.9760   -2.0780    4.3620 hn        1 MOL      0.201060
     69 H29         4.7630   -3.2620    2.5460 h1        1 MOL      0.102509
     70 H30         5.0530   -3.1810    5.0870 hc        1 MOL      0.058666
     71 H31         5.3270   -4.8210    4.4140 hc        1 MOL      0.058666
     72 N7          1.8690   -4.7470    2.8050 n         1 MOL     -0.051242
     73 C23         1.0990   -5.8060    2.2130 c3        1 MOL     -0.207537
     74 C24         0.7340   -5.6030    0.7050 c         1 MOL      0.564663
     75 O13         0.2870   -6.5800    0.0520 o         1 MOL     -0.556722
     76 H32         1.4380   -4.1050    3.4520 hn        1 MOL      0.174630
     77 H33         0.0740   -5.7290    2.5890 h1        1 MOL      0.099387
     78 H34         1.4880   -6.8070    2.3650 h1        1 MOL      0.099387
     79 N8          0.9760   -4.4010    0.1700 n         1 MOL     -0.412339
     80 C25         0.9330   -4.1140   -1.2500 c3        1 MOL      0.132349
     81 C26         0.4650   -2.6880   -1.5410 c         1 MOL      0.370362
     82 O14         0.5440   -1.7630   -0.8030 o         1 MOL     -0.433454
     83 C27         2.2730   -4.3710   -1.9730 c3        1 MOL      0.255866
     84 C28         2.9800   -5.7150   -1.7370 c3        1 MOL     -0.465592
     85 O15         2.0210   -4.3270   -3.3600 oh        1 MOL     -0.660623
     86 H35         1.4050   -3.7060    0.7680 hn        1 MOL      0.195218
     87 H36         0.1540   -4.7680   -1.6540 h1        1 MOL      0.051860
     88 H37         2.9310   -3.5330   -1.7190 h1        1 MOL      0.040358
     89 H38         2.8060   -4.5260   -3.8710 ho        1 MOL      0.424829
     90 H39         3.0400   -5.8250   -0.6580 hc        1 MOL      0.133619
     91 H40         2.3740   -6.5180   -2.1660 hc        1 MOL      0.133619
     92 H41         3.8840   -5.7600   -2.3450 hc        1 MOL      0.133619
     93 N9         -0.2540   -2.4300   -2.7310 n         1 MOL     -0.073049
     94 C29        -0.6830   -1.1110   -3.0180 c3        1 MOL     -0.087301
     95 C30        -2.0610   -0.7090   -2.4910 c         1 MOL      0.504286
     96 O16        -2.4330    0.4790   -2.2900 o         1 MOL     -0.533713
     97 C31        -0.6370   -0.8870   -4.5830 c3        1 MOL      0.122424
     98 C32         0.7090   -1.3330   -5.1490 c3        1 MOL      0.154920
     99 C33        -1.0620    0.4850   -5.1490 c3        1 MOL     -0.349777
    100 C34         1.9350   -0.6900   -4.5630 c3        1 MOL     -0.195636
    101 H42        -0.4090   -3.1830   -3.3780 hn        1 MOL      0.188874
    102 H43        -0.0320   -0.3490   -2.5870 h1        1 MOL      0.097112
    103 H44        -1.3150   -1.6740   -4.9210 hc        1 MOL     -0.039070
    104 H45         0.7540   -1.1330   -6.2210 hc        1 MOL     -0.039486
    105 H46         0.8530   -2.4100   -5.0570 hc        1 MOL     -0.039486
    106 H47        -0.4750    1.1900   -4.5590 hc        1 MOL      0.096118
    107 H48        -0.8470    0.4660   -6.2150 hc        1 MOL      0.096118
    108 H49        -2.1230    0.6270   -4.9350 hc        1 MOL      0.096118
    109 H50         2.7960   -0.8230   -5.2070 hc        1 MOL      0.027778
    110 H51         1.7440    0.3420   -4.2750 hc        1 MOL      0.027778
    111 H52         2.0470   -1.2510   -3.6340 hc        1 MOL      0.027778
    112 N10        -2.8320   -1.7290   -2.0960 n         1 MOL     -0.370344
    113 C35        -4.0290   -1.6750   -1.2650 c3        1 MOL      0.106421
    114 C36        -5.1930   -2.3920   -1.8580 c         1 MOL      0.600487
    115 O17        -5.0920   -3.2100   -2.7880 o         1 MOL     -0.551372
    116 C37        -3.6430   -2.1640    0.2080 c3        1 MOL      0.239706
    117 C38        -3.3690   -3.6660    0.2400 c3        1 MOL     -0.286588
    118 O18        -2.3950   -1.5200    0.5290 oh        1 MOL     -0.600171
    119 H53        -2.4670   -2.6540   -2.1880 hn        1 MOL      0.158960
    120 H54        -4.4550   -0.6700   -1.3110 h1        1 MOL      0.049622
    121 H55        -4.4050   -1.8860    0.9380 h1        1 MOL      0.037721
    122 H56        -2.0300   -1.9840    1.2850 ho        1 MOL      0.396016
    123 H57        -2.5320   -3.8550    0.9160 hc        1 MOL      0.076352
    124 H58        -4.2460   -4.0860    0.7400 hc        1 MOL      0.076352
    125 H59        -3.0920   -4.0770   -0.7340 hc        1 MOL      0.076352
    126 N11        -6.3880   -2.0840   -1.3890 n         1 MOL     -0.490017
    127 C39        -7.6440   -2.6670   -1.8210 c3        1 MOL      0.020433
    128 C40        -8.8670   -1.6550   -1.7740 c         1 MOL      0.554249
    129 O19        -9.6710   -1.5550   -2.7180 o         1 MOL     -0.527245
    130 C41        -7.9420   -3.9370   -1.0020 c3        1 MOL      0.227243
    131 C42        -9.3310   -4.5650   -1.0480 c3        1 MOL     -0.313153
    132 O20        -7.7060   -3.5340    0.3750 oh        1 MOL     -0.629847
    133 H60        -6.4520   -1.5280   -0.5550 hn        1 MOL      0.248103
    134 H61        -7.6290   -2.8730   -2.8840 h1        1 MOL      0.102911
    135 H62        -7.2560   -4.7060   -1.3540 h1        1 MOL      0.056850
    136 H63        -7.8550   -4.2770    0.9580 ho        1 MOL      0.414177
    137 H64       -10.0440   -3.8130   -0.7250 hc        1 MOL      0.090181
    138 H65        -9.5300   -4.8750   -2.0690 hc        1 MOL      0.090181
    139 H66        -9.3640   -5.4420   -0.4030 hc        1 MOL      0.090181
    140 N12        -8.9470   -0.8950   -0.6390 n         1 MOL     -0.439108
    141 C43       -10.0640   -0.0130   -0.3320 c3        1 MOL     -0.010397
    142 C44        -9.5990    1.0120    0.6890 c         1 MOL      0.600533
    143 O21        -9.0020    0.6230    1.6680 o         1 MOL     -0.496644
    144 C45       -11.2250   -0.8770    0.1340 c3        1 MOL     -0.102339
    145 C46       -12.6710   -0.4650   -0.1820 c3        1 MOL      0.173350
    146 C47       -13.2180    0.7790    0.5470 c3        1 MOL     -0.082507
    147 C48       -14.8020    0.9610    0.4110 c3        1 MOL     -0.077600
    148 N13       -15.6270   -0.1310    0.9430 n4        1 MOL     -0.222504
    149 H67        -8.3390   -1.0200    0.1550 hn        1 MOL      0.289106
    150 H68       -10.3750    0.4880   -1.2480 h1        1 MOL      0.087885
    151 H69       -11.1410   -1.0230    1.2100 hc        1 MOL      0.041685
    152 H70       -11.0550   -1.8880   -0.2200 hc        1 MOL      0.041685
    153 H71       -13.3360   -1.2380    0.2130 hc        1 MOL     -0.035429
    154 H72       -12.8630   -0.3920   -1.2510 hc        1 MOL     -0.035429
    155 H73       -12.7610    1.6420    0.0770 hc        1 MOL      0.062967
    156 H74       -12.9300    0.6860    1.5990 hc        1 MOL      0.062967
    157 H75       -14.9840    1.2710   -0.6230 hx        1 MOL      0.108566
    158 H76       -15.1400    1.8180    0.9830 hx        1 MOL      0.108566
    159 H77       -15.8070   -0.8110    0.2140 hn        1 MOL      0.252884
    160 H78       -15.2510   -0.6840    1.6980 hn        1 MOL      0.252884
    161 H79       -16.5080    0.2910    1.2040 hn        1 MOL      0.252884
    162 N14        -9.9870    2.2540    0.5120 n         1 MOL     -0.646645
    163 C49        -9.4670    3.4020    1.3030 c3        1 MOL      0.240017
    164 C50        -7.8940    3.5760    1.4350 c         1 MOL      0.256291
    165 O22        -7.2840    3.6520    2.5040 o         1 MOL     -0.495668
    166 C51       -10.1620    4.6770    0.7870 c3        1 MOL     -0.183949
    167 C52        -9.7270    5.8580    1.6090 c3        1 MOL     -0.168478
    168 C53       -10.6060    7.0400    1.4070 c         1 MOL      0.751424
    169 O23       -11.6990    7.1790    2.0260 o         1 MOL     -0.672708
    170 O24       -10.1490    7.9130    0.7090 o         1 MOL     -0.672708
    171 H80       -10.5860    2.3990   -0.2810 hn        1 MOL      0.313555
    172 H81        -9.8330    3.3990    2.3260 h1        1 MOL      0.069870
    173 H82       -11.2460    4.6070    0.7850 hc        1 MOL      0.055853
    174 H83        -9.8300    4.8840   -0.2350 hc        1 MOL      0.055853
    175 H84        -8.7230    6.1160    1.2820 hc        1 MOL      0.060621
    176 H85        -9.7330    5.6210    2.6750 hc        1 MOL      0.060621
    177 N15        -7.1500    3.4130    0.3690 n         1 MOL     -0.146418
    178 C54        -7.3680    3.2580   -1.0310 c3        1 MOL     -0.142690
    179 H86        -8.0740    2.4450   -1.2010 h1        1 MOL      0.074836
    180 H87        -7.7740    4.1830   -1.4400 h1        1 MOL      0.074836
    181 H88        -6.4230    3.0260   -1.5230 h1        1 MOL      0.074836
    182 H89        -6.1820    3.6170    0.5650 hn        1 MOL      0.249702
    183 Ca1         5.1400    4.1900   -0.7970 Ca        1 MOL      1.768579
    184 O25         4.4960    1.9710   -2.3790 oh        1 MOL     -0.888281
    185 H90         3.6660    1.5250   -2.5770 ho        1 MOL      0.436952
    186 H91         5.1720    1.3640   -2.6660 ho        1 MOL      0.436952
    187 O26         2.4660    4.2490   -1.5780 oh        1 MOL     -0.888281
    188 H92         1.8580    3.5190   -1.4870 ho        1 MOL      0.436952
    189 H93         1.9010    5.0190   -1.6620 ho        1 MOL      0.436952
    190 O27         3.9630    6.0400    0.8440 oh        1 MOL     -0.888281
    191 H94         4.5330    6.4310    1.5060 ho        1 MOL      0.436952
    192 H95         3.2310    6.6520    0.7580 ho        1 MOL      0.436952
@<TRIPOS>BOND
     1    1    2 1   
     2    1    4 1   
     3    1    5 1   
     4    1    6 1   
     5    2    3 2   
     6    2    7 1   
     7    7    8 1   
     8    7   15 1   
     9    8    9 1   
    10    8   11 1   
    11    8   16 1   
    12    9   10 2   
    13    9   19 1   
    14   11   12 1   
    15   11   17 1   
    16   11   18 1   
    17   12   13 1   
    18   12   14 1   
    19   19   20 1   
    20   19   28 1   
    21   20   21 1   
    22   20   23 1   
    23   20   29 1   
    24   21   22 2   
    25   21   41 1   
    26   23   24 1   
    27   23   30 1   
    28   23   31 1   
    29   24   25 1   
    30   24   32 1   
    31   24   33 1   
    32   25   26 1   
    33   25   34 1   
    34   25   35 1   
    35   26   27 1   
    36   26   36 1   
    37   26   37 1   
    38   27   38 1   
    39   27   39 1   
    40   27   40 1   
    41   41   42 1   
    42   41   49 1   
    43   42   43 1   
    44   42   45 1   
    45   42   50 1   
    46   43   44 2   
    47   43   53 1   
    48   45   46 1   
    49   45   51 1   
    50   45   52 1   
    51   46   47 1   
    52   46   48 1   
    53   53   54 1   
    54   53   57 1   
    55   54   55 1   
    56   54   58 1   
    57   54   59 1   
    58   55   56 2   
    59   55   60 1   
    60   60   61 1   
    61   60   68 1   
    62   61   62 1   
    63   61   64 1   
    64   61   69 1   
    65   62   63 2   
    66   62   72 1   
    67   64   65 1   
    68   64   70 1   
    69   64   71 1   
    70   65   66 1   
    71   65   67 1   
    72   72   73 1   
    73   72   76 1   
    74   73   74 1   
    75   73   77 1   
    76   73   78 1   
    77   74   75 2   
    78   74   79 1   
    79   79   80 1   
    80   79   86 1   
    81   80   81 1   
    82   80   83 1   
    83   80   87 1   
    84   81   82 2   
    85   81   93 1   
    86   83   84 1   
    87   83   85 1   
    88   83   88 1   
    89   84   90 1   
    90   84   91 1   
    91   84   92 1   
    92   85   89 1   
    93   93   94 1   
    94   93  101 1   
    95   94   95 1   
    96   94   97 1   
    97   94  102 1   
    98   95   96 2   
    99   95  112 1   
   100   97   98 1   
   101   97   99 1   
   102   97  103 1   
   103   98  100 1   
   104   98  104 1   
   105   98  105 1   
   106   99  106 1   
   107   99  107 1   
   108   99  108 1   
   109  100  109 1   
   110  100  110 1   
   111  100  111 1   
   112  112  113 1   
   113  112  119 1   
   114  113  114 1   
   115  113  116 1   
   116  113  120 1   
   117  114  115 2   
   118  114  126 1   
   119  116  117 1   
   120  116  118 1   
   121  116  121 1   
   122  117  123 1   
   123  117  124 1   
   124  117  125 1   
   125  118  122 1   
   126  126  127 1   
   127  126  133 1   
   128  127  128 1   
   129  127  130 1   
   130  127  134 1   
   131  128  129 2   
   132  128  140 1   
   133  130  131 1   
   134  130  132 1   
   135  130  135 1   
   136  131  137 1   
   137  131  138 1   
   138  131  139 1   
   139  132  136 1   
   140  140  141 1   
   141  140  149 1   
   142  141  142 1   
   143  141  144 1   
   144  141  150 1   
   145  142  143 2   
   146  142  162 1   
   147  144  145 1   
   148  144  151 1   
   149  144  152 1   
   150  145  146 1   
   151  145  153 1   
   152  145  154 1   
   153  146  147 1   
   154  146  155 1   
   155  146  156 1   
   156  147  148 1   
   157  147  157 1   
   158  147  158 1   
   159  148  159 1   
   160  148  160 1   
   161  148  161 1   
   162  162  163 1   
   163  162  171 1   
   164  163  164 1   
   165  163  166 1   
   166  163  172 1   
   167  164  165 2   
   168  164  177 1   
   169  166  167 1   
   170  166  173 1   
   171  166  174 1   
   172  167  168 1   
   173  167  175 1   
   174  167  176 1   
   175  168  169 1   
   176  168  170 1   
   177  177  178 1   
   178  177  182 1   
   179  178  179 1   
   180  178  180 1   
   181  178  181 1   
   182  184  185 1   
   183  184  186 1   
   184  187  188 1   
   185  187  189 1   
   186  190  191 1   
   187  190  192 1   
@<TRIPOS>SUBSTRUCTURE
     1 MOL         1 TEMP              0 ****  ****    0 ROOT
