@<TRIPOS>MOLECULE
MOL
  189   185     1     0     0
SMALL
resp


@<TRIPOS>ATOM
      1 C1         -4.9930    4.4510    3.4610 c3        1 MOL     -0.301340
      2 C2         -5.4920    3.3470    2.4920 c         1 MOL      0.742893
      3 O1         -4.8470    3.2040    1.4440 o         1 MOL     -0.648141
      4 H1         -5.8430    4.8760    3.9950 hc        1 MOL      0.077188
      5 H2         -4.2960    4.0180    4.1780 hc        1 MOL      0.077188
      6 H3         -4.4930    5.2340    2.8940 hc        1 MOL      0.077188
      7 N1         -6.5720    2.6020    2.8300 n         1 MOL     -0.790661
      8 C3         -7.1230    1.4760    2.0510 c3        1 MOL      0.261776
      9 C4         -6.1150    0.4910    1.5700 c         1 MOL      0.094115
     10 O2         -5.7850    0.4310    0.4390 o         1 MOL     -0.244943
     11 C5         -8.1150    1.9390    1.0000 c3        1 MOL      0.003844
     12 C6         -7.6490    3.0620    0.0300 c         1 MOL      0.827204
     13 O3         -6.8450    2.7750   -0.8420 o         1 MOL     -0.757960
     14 O4         -8.3170    4.1270    0.0880 o         1 MOL     -0.757960
     15 H4         -6.9290    2.8820    3.7310 hn        1 MOL      0.368111
     16 H5         -7.6990    0.8640    2.7550 h1        1 MOL      0.021465
     17 H6         -9.0200    2.2960    1.4870 hc        1 MOL     -0.036729
     18 H7         -8.4070    1.0670    0.4140 hc        1 MOL     -0.036729
     19 N2         -5.5820   -0.2440    2.5330 n         1 MOL     -0.235746
     20 C7         -4.8700   -1.5420    2.5000 c3        1 MOL     -0.016724
     21 C8         -5.5830   -2.6600    1.7810 c         1 MOL      0.331775
     22 O5         -5.8850   -3.7230    2.3310 o         1 MOL     -0.554222
     23 C9         -3.4540   -1.4490    2.0060 c3        1 MOL      0.318977
     24 C10        -2.6310   -2.8080    2.0750 c3        1 MOL      0.038469
     25 C11        -2.7130   -0.2860    2.6830 c3        1 MOL     -0.534140
     26 C12        -2.3570   -3.3600    3.5150 c3        1 MOL     -0.230914
     27 H8         -5.8800   -0.1290    3.4900 hn        1 MOL      0.249519
     28 H9         -4.7790   -1.8660    3.5400 h1        1 MOL      0.026333
     29 H10        -3.4130   -1.2850    0.9270 hc        1 MOL      0.005137
     30 H11        -1.6400   -2.7090    1.6410 hc        1 MOL      0.008995
     31 H12        -3.2110   -3.5310    1.5070 hc        1 MOL      0.008995
     32 H13        -1.7170   -0.3140    2.2430 hc        1 MOL      0.116878
     33 H14        -3.1610    0.6720    2.4190 hc        1 MOL      0.116878
     34 H15        -2.7440   -0.5480    3.7500 hc        1 MOL      0.116878
     35 H16        -1.7650   -4.2770    3.4210 hc        1 MOL      0.038418
     36 H17        -1.7090   -2.7170    4.1020 hc        1 MOL      0.038418
     37 H18        -3.3140   -3.6400    3.9630 hc        1 MOL      0.038418
     38 N3         -5.7440   -2.5420    0.5040 n         1 MOL      0.011782
     39 C13        -6.4510   -3.5090   -0.3790 c3        1 MOL      0.040795
     40 C14        -5.8570   -4.8870   -0.6770 c         1 MOL      0.680883
     41 O6         -6.4470   -5.8730   -0.2860 o         1 MOL     -0.579953
     42 C15        -7.2000   -2.7510   -1.5400 c3        1 MOL     -0.144198
     43 C16        -8.0710   -1.6070   -1.1070 c         1 MOL      0.710015
     44 O7         -8.7830   -1.7920   -0.0590 o         1 MOL     -0.686589
     45 O8         -8.3020   -0.7770   -1.9920 o         1 MOL     -0.686589
     46 H19        -5.2200   -1.7620    0.1260 hn        1 MOL      0.045780
     47 H20        -7.3320   -3.8180    0.1840 h1        1 MOL      0.006255
     48 H21        -7.8180   -3.5100   -2.0270 hc        1 MOL      0.031811
     49 H22        -6.4380   -2.4130   -2.2540 hc        1 MOL      0.031811
     50 N4         -4.6270   -4.9810   -1.2710 n         1 MOL     -0.753842
     51 C17        -3.7420   -3.8830   -1.6520 c3        1 MOL      0.394117
     52 C18        -4.0970   -3.4100   -3.0910 c         1 MOL      0.287071
     53 O9         -4.7970   -4.1190   -3.8270 o         1 MOL     -0.533321
     54 H23        -4.4140   -5.9130   -1.6020 hn        1 MOL      0.324391
     55 H24        -2.7530   -4.3470   -1.7030 h1        1 MOL      0.024182
     56 H25        -3.7670   -3.0720   -0.9170 h1        1 MOL      0.024182
     57 N5         -3.7610   -2.1700   -3.4300 n         1 MOL     -0.255032
     58 C19        -2.4890   -1.4150   -3.0710 c3        1 MOL     -0.060820
     59 C20        -2.5650   -0.8290   -1.7050 c         1 MOL     -0.065727
     60 O10        -3.5990   -0.3740   -1.2890 o         1 MOL     -0.399864
     61 C21        -2.1930   -0.3470   -4.1350 c3        1 MOL     -0.221809
     62 C22        -3.1540    0.9070   -4.0500 c         1 MOL      0.698197
     63 O11        -4.1050    0.9610   -4.8330 o         1 MOL     -0.672667
     64 O12        -2.9180    1.8140   -3.1940 o         1 MOL     -0.672667
     65 H26        -4.2660   -1.9350   -4.2740 hn        1 MOL      0.295969
     66 H27        -1.7560   -2.2210   -3.0380 h1        1 MOL      0.087085
     67 H28        -2.3720   -0.7440   -5.1310 hc        1 MOL      0.073017
     68 H29        -1.1530   -0.0440   -4.0090 hc        1 MOL      0.073017
     69 N6         -1.3860   -0.5090   -1.1450 n         1 MOL      0.042626
     70 C23         0.0250   -0.9940   -1.3290 c3        1 MOL     -0.003934
     71 C24         0.2080   -2.4360   -0.7150 c         1 MOL      0.688210
     72 O13        -0.7560   -3.2310   -0.6200 o         1 MOL     -0.603430
     73 H30        -1.5400    0.0170   -0.2910 hn        1 MOL      0.070637
     74 H31         0.6870   -0.3230   -0.7800 h1        1 MOL      0.037780
     75 H32         0.2470   -1.1110   -2.3890 h1        1 MOL      0.037780
     76 N7          1.4170   -2.7880   -0.3400 n         1 MOL     -0.611152
     77 C25         1.7140   -4.2100   -0.0440 c3        1 MOL      0.031787
     78 C26         2.5890   -4.3980    1.1770 c         1 MOL      0.516824
     79 O14         3.0620   -5.4470    1.4620 o         1 MOL     -0.564678
     80 C27         2.0970   -5.0750   -1.2880 c3        1 MOL     -0.028922
     81 C28         3.5610   -4.9230   -1.8190 c3        1 MOL     -0.142570
     82 C29         4.0320   -3.5480   -1.8960 c         1 MOL      0.470854
     83 N8          4.0190   -2.9860   -3.0390 n         1 MOL     -0.657528
     84 O15         4.4810   -2.8970   -0.9540 o         1 MOL     -0.493394
     85 H33         2.1670   -2.1420   -0.5490 hn        1 MOL      0.309158
     86 H34         0.8160   -4.6120    0.4110 h1        1 MOL      0.114822
     87 H35         1.3710   -4.7990   -2.0520 hc        1 MOL      0.057572
     88 H36         1.9030   -6.1310   -1.0570 hc        1 MOL      0.057572
     89 H37         3.5620   -5.3570   -2.8220 hc        1 MOL      0.060975
     90 H38         4.2160   -5.4720   -1.1470 hc        1 MOL      0.060975
     91 H39         3.4470   -3.3860   -3.7760 hn        1 MOL      0.354526
     92 H40         4.3980   -2.0530   -3.1180 hn        1 MOL      0.354526
     93 N9          2.8580   -3.3320    1.9050 n         1 MOL     -0.053819
     94 C30         3.5130   -3.2560    3.1570 c3        1 MOL     -0.498711
     95 C31         4.9090   -2.5800    3.0140 c         1 MOL      0.665134
     96 O16         5.6340   -2.5370    3.9980 o         1 MOL     -0.543486
     97 C32         2.6550   -2.5560    4.2520 c3        1 MOL      0.242518
     98 C33         1.4550   -3.4410    4.5940 c3        1 MOL     -0.121754
     99 C34         2.1810   -1.1710    3.8890 c3        1 MOL     -0.121754
    100 H41         2.5100   -2.4720    1.5080 hn        1 MOL      0.183123
    101 H42         3.7650   -4.2420    3.5450 h1        1 MOL      0.199556
    102 H43         3.2220   -2.4660    5.1770 hc        1 MOL      0.006738
    103 H44         0.8770   -3.4160    3.6730 hc        1 MOL      0.024261
    104 H45         1.7650   -4.4640    4.8140 hc        1 MOL      0.024261
    105 H46         0.9190   -3.1010    5.4840 hc        1 MOL      0.024261
    106 H47         3.0370   -0.5120    3.7770 hc        1 MOL      0.024261
    107 H48         1.6670   -1.1480    2.9190 hc        1 MOL      0.024261
    108 H49         1.5930   -0.6960    4.6780 hc        1 MOL      0.024261
    109 N10         5.2930   -2.0410    1.8110 n         1 MOL     -0.564879
    110 C35         6.6970   -1.6120    1.4880 c3        1 MOL      0.378655
    111 C36         6.7200   -0.1780    1.0460 c         1 MOL      0.398342
    112 O17         7.7220    0.4480    1.4490 o         1 MOL     -0.552146
    113 C37         7.3160   -2.4760    0.4100 c3        1 MOL     -0.161028
    114 C38         7.3350   -3.9660    0.7280 c         1 MOL      0.498075
    115 N11         6.2340   -4.6320    0.5040 n         1 MOL     -0.636602
    116 O18         8.3340   -4.5220    1.2540 o         1 MOL     -0.558845
    117 H50         4.6810   -2.1360    1.0120 hn        1 MOL      0.306106
    118 H51         7.2660   -1.6410    2.4120 h1        1 MOL      0.021518
    119 H52         8.3700   -2.1970    0.3680 hc        1 MOL      0.049607
    120 H53         6.8360   -2.2820   -0.5510 hc        1 MOL      0.049607
    121 H54         5.5260   -4.2060   -0.0870 hn        1 MOL      0.319963
    122 H55         6.3070   -5.6320    0.5570 hn        1 MOL      0.319963
    123 N12         5.7850    0.4170    0.2490 n         1 MOL     -0.477735
    124 C39         5.9760    1.8020   -0.2630 c3        1 MOL      0.331722
    125 C40         4.5620    2.4570   -0.1220 c         1 MOL      0.405479
    126 O19         3.4890    1.8560   -0.2460 o         1 MOL     -0.476293
    127 C41         6.5530    1.7260   -1.7350 c3        1 MOL     -0.031056
    128 C42         7.7740    0.8450   -1.9350 ca        1 MOL     -0.039419
    129 C43         9.0790    1.3760   -1.5120 ca        1 MOL     -0.037401
    130 C44         7.6920   -0.3120   -2.6190 ca        1 MOL     -0.037401
    131 C45        10.2470    0.7330   -2.0190 ca        1 MOL     -0.388257
    132 C46         8.8310   -0.9490   -3.1270 ca        1 MOL     -0.388257
    133 C47        10.1050   -0.4600   -2.6870 ca        1 MOL      0.474099
    134 O20        11.2020   -1.2360   -2.8910 oh        1 MOL     -0.557968
    135 H56         4.8990   -0.0520    0.1200 hn        1 MOL      0.158995
    136 H57         6.7060    2.3100    0.3620 h1        1 MOL      0.042104
    137 H58         6.7870    2.7800   -1.8920 hc        1 MOL      0.016642
    138 H59         5.8760    1.4180   -2.5260 hc        1 MOL      0.016642
    139 H60         9.1850    2.2360   -0.8830 ha        1 MOL      0.122540
    140 H61         6.7530   -0.8360   -2.7170 ha        1 MOL      0.122540
    141 H62        11.2280    1.0390   -1.6880 ha        1 MOL      0.160285
    142 H63         8.7590   -1.8340   -3.7400 ha        1 MOL      0.160285
    143 H64        11.9970   -0.9140   -2.4640 ho        1 MOL      0.385478
    144 N13         4.6170    3.7720    0.0250 n         1 MOL     -0.599723
    145 C48         3.5860    4.6870   -0.3180 c3        1 MOL      0.199010
    146 C49         2.4010    4.7450    0.6390 c         1 MOL      0.268357
    147 O21         1.6880    5.7300    0.6940 o         1 MOL     -0.489489
    148 C50         3.1270    4.5550   -1.8110 c3        1 MOL      0.063989
    149 C51         4.1660    4.7030   -2.9250 c3        1 MOL     -0.356344
    150 C52         4.7580    6.1080   -2.9080 c         1 MOL      0.722846
    151 O22         4.3310    7.0070   -3.7070 o         1 MOL     -0.724037
    152 O23         5.6650    6.5050   -2.1340 o         1 MOL     -0.724037
    153 H65         5.5530    4.1460    0.0750 hn        1 MOL      0.288119
    154 H66         3.9820    5.7000   -0.2300 h1        1 MOL      0.077574
    155 H67         2.4110    5.3590   -1.9110 hc        1 MOL      0.043511
    156 H68         2.5280    3.6510   -1.8830 hc        1 MOL      0.043511
    157 H69         3.7930    4.5540   -3.9310 hc        1 MOL      0.062648
    158 H70         4.9750    4.0090   -2.6740 hc        1 MOL      0.062648
    159 N14         2.1380    3.7500    1.4820 n         1 MOL     -0.137740
    160 C53         0.9830    3.7690    2.3590 c3        1 MOL     -0.202809
    161 C54         1.4490    4.3700    3.7180 c         1 MOL      0.519972
    162 O24         0.6070    4.8250    4.4800 o         1 MOL     -0.556195
    163 C55         0.3330    2.3720    2.4820 c3        1 MOL     -0.035100
    164 C56         0.0000    1.7560    1.1210 c3        1 MOL      0.431515
    165 C57        -1.1110    2.5330    0.3500 c         1 MOL      0.585371
    166 O25        -2.2140    1.9350    0.1710 o         1 MOL     -0.625665
    167 O26        -0.8540    3.6250   -0.2060 o         1 MOL     -0.625665
    168 H71         2.6980    2.9170    1.3950 hn        1 MOL      0.222529
    169 H72         0.2360    4.4130    1.9050 h1        1 MOL      0.182416
    170 H73        -0.5840    2.5400    3.0560 hc        1 MOL     -0.000677
    171 H74         0.9800    1.7030    3.0540 hc        1 MOL     -0.000677
    172 H75        -0.0980    0.6790    1.2700 hc        1 MOL     -0.171091
    173 H76         0.8850    1.8810    0.4870 hc        1 MOL     -0.171091
    174 N15         2.7320    4.2740    4.0020 n         1 MOL     -0.255434
    175 C58         3.2920    4.9600    5.2210 c3        1 MOL     -0.186991
    176 H77         2.5230    5.5910    5.6670 h1        1 MOL      0.089513
    177 H78         3.6130    4.2110    5.9450 h1        1 MOL      0.089513
    178 H79         4.1430    5.5750    4.9320 h1        1 MOL      0.089513
    179 H80         3.3250    3.7940    3.3390 hn        1 MOL      0.203598
    180 Ca1        -4.5000    2.1460   -1.1490 Ca        1 MOL      1.673765
    181 O27        -5.1110    3.4740   -3.4440 oh        1 MOL     -0.828700
    182 H81        -4.7140    4.3210   -3.6290 ho        1 MOL      0.394555
    183 H82        -4.6580    2.8650   -4.0300 ho        1 MOL      0.394555
    184 O28        -6.1270    0.9090   -3.0340 oh        1 MOL     -0.828700
    185 H83        -7.0470    0.6610   -2.8930 ho        1 MOL      0.394555
    186 H84        -5.9590    0.6800   -3.9550 ho        1 MOL      0.394555
    187 O29        -3.3400    4.5670   -1.0000 oh        1 MOL     -0.828700
    188 H85        -3.3430    5.5140   -0.9020 ho        1 MOL      0.394555
    189 H86        -2.5340    4.2790   -0.5550 ho        1 MOL      0.394555
@<TRIPOS>BOND
     1    1    2 1   
     2    1    4 1   
     3    1    5 1   
     4    1    6 1   
     5    2    3 2   
     6    2    7 1   
     7    7    8 1   
     8    7   15 1   
     9    8    9 1   
    10    8   11 1   
    11    8   16 1   
    12    9   10 2   
    13    9   19 1   
    14   11   12 1   
    15   11   17 1   
    16   11   18 1   
    17   12   13 1   
    18   12   14 1   
    19   19   20 1   
    20   19   27 1   
    21   20   21 1   
    22   20   23 1   
    23   20   28 1   
    24   21   22 2   
    25   21   38 1   
    26   23   24 1   
    27   23   25 1   
    28   23   29 1   
    29   24   26 1   
    30   24   30 1   
    31   24   31 1   
    32   25   32 1   
    33   25   33 1   
    34   25   34 1   
    35   26   35 1   
    36   26   36 1   
    37   26   37 1   
    38   38   39 1   
    39   38   46 1   
    40   39   40 1   
    41   39   42 1   
    42   39   47 1   
    43   40   41 2   
    44   40   50 1   
    45   42   43 1   
    46   42   48 1   
    47   42   49 1   
    48   43   44 1   
    49   43   45 1   
    50   50   51 1   
    51   50   54 1   
    52   51   52 1   
    53   51   55 1   
    54   51   56 1   
    55   52   53 2   
    56   52   57 1   
    57   57   58 1   
    58   57   65 1   
    59   58   59 1   
    60   58   61 1   
    61   58   66 1   
    62   59   60 2   
    63   59   69 1   
    64   61   62 1   
    65   61   67 1   
    66   61   68 1   
    67   62   63 1   
    68   62   64 1   
    69   69   70 1   
    70   69   73 1   
    71   70   71 1   
    72   70   74 1   
    73   70   75 1   
    74   71   72 2   
    75   71   76 1   
    76   76   77 1   
    77   76   85 1   
    78   77   78 1   
    79   77   80 1   
    80   77   86 1   
    81   78   79 2   
    82   78   93 1   
    83   80   81 1   
    84   80   87 1   
    85   80   88 1   
    86   81   82 1   
    87   81   89 1   
    88   81   90 1   
    89   82   83 1   
    90   82   84 2   
    91   83   91 1   
    92   83   92 1   
    93   93   94 1   
    94   93  100 1   
    95   94   95 1   
    96   94   97 1   
    97   94  101 1   
    98   95   96 2   
    99   95  109 1   
   100   97   98 1   
   101   97   99 1   
   102   97  102 1   
   103   98  103 1   
   104   98  104 1   
   105   98  105 1   
   106   99  106 1   
   107   99  107 1   
   108   99  108 1   
   109  109  110 1   
   110  109  117 1   
   111  110  111 1   
   112  110  113 1   
   113  110  118 1   
   114  111  112 2   
   115  111  123 1   
   116  113  114 1   
   117  113  119 1   
   118  113  120 1   
   119  114  115 1   
   120  114  116 2   
   121  115  121 1   
   122  115  122 1   
   123  123  124 1   
   124  123  135 1   
   125  124  125 1   
   126  124  127 1   
   127  124  136 1   
   128  125  126 2   
   129  125  144 1   
   130  127  128 1   
   131  127  137 1   
   132  127  138 1   
   133  128  129 ar  
   134  128  130 ar  
   135  129  131 ar  
   136  129  139 1   
   137  130  132 ar  
   138  130  140 1   
   139  131  133 ar  
   140  131  141 1   
   141  132  133 ar  
   142  132  142 1   
   143  133  134 1   
   144  134  143 1   
   145  144  145 1   
   146  144  153 1   
   147  145  146 1   
   148  145  148 1   
   149  145  154 1   
   150  146  147 2   
   151  146  159 1   
   152  148  149 1   
   153  148  155 1   
   154  148  156 1   
   155  149  150 1   
   156  149  157 1   
   157  149  158 1   
   158  150  151 1   
   159  150  152 1   
   160  159  160 1   
   161  159  168 1   
   162  160  161 1   
   163  160  163 1   
   164  160  169 1   
   165  161  162 2   
   166  161  174 1   
   167  163  164 1   
   168  163  170 1   
   169  163  171 1   
   170  164  165 1   
   171  164  172 1   
   172  164  173 1   
   173  165  166 1   
   174  165  167 1   
   175  174  175 1   
   176  174  179 1   
   177  175  176 1   
   178  175  177 1   
   179  175  178 1   
   180  181  182 1   
   181  181  183 1   
   182  184  185 1   
   183  184  186 1   
   184  187  188 1   
   185  187  189 1   
@<TRIPOS>SUBSTRUCTURE
     1 MOL         1 TEMP              0 ****  ****    0 ROOT
