@<TRIPOS>MOLECULE
MOL
  182   178     1     0     0
SMALL
resp


@<TRIPOS>ATOM
      1 C1          0.6580   -4.0090    6.5690 c3        1 MOL     -0.337629
      2 C2          0.6290   -3.7820    5.0110 c         1 MOL      0.700050
      3 O1         -0.4640   -3.8770    4.4370 o         1 MOL     -0.565851
      4 H1         -0.1490   -3.4410    7.0330 hc        1 MOL      0.090754
      5 H2          0.5270   -5.0690    6.7850 hc        1 MOL      0.090754
      6 H3          1.6140   -3.6720    6.9680 hc        1 MOL      0.090754
      7 N1          1.7980   -3.5010    4.4650 n         1 MOL     -0.515786
      8 C3          1.9230   -3.3090    3.0620 c3        1 MOL     -0.107892
      9 C4          1.7920   -4.6630    2.2800 c         1 MOL      0.660891
     10 O2          2.0320   -5.7280    2.8650 o         1 MOL     -0.536663
     11 C5          3.1800   -2.5340    2.8270 c3        1 MOL     -0.193573
     12 C6          3.2630   -1.8010    1.5420 c         1 MOL      0.437644
     13 O3          3.9960   -0.7430    1.5150 o         1 MOL     -0.607403
     14 O4          2.8020   -2.2490    0.4940 o         1 MOL     -0.607403
     15 H4          2.6530   -3.6030    5.0020 hn        1 MOL      0.330452
     16 H5          1.1330   -2.6170    2.7770 h1        1 MOL     -0.001317
     17 H6          4.0420   -3.2010    2.7960 hc        1 MOL      0.127724
     18 H7          3.3940   -1.8500    3.6390 hc        1 MOL      0.127724
     19 N2          1.4150   -4.5880    0.9830 n         1 MOL     -0.510618
     20 C7          1.1690   -5.6760   -0.0440 c3        1 MOL      0.003061
     21 C8          2.0840   -5.6560   -1.2250 c         1 MOL      0.460523
     22 O5          2.1160   -6.6390   -2.0130 o         1 MOL     -0.553972
     23 C9         -0.2630   -5.7260   -0.4190 c3        1 MOL      0.000450
     24 C10        -0.8480   -4.4880   -1.1490 c3        1 MOL     -0.088380
     25 C11        -2.3180   -4.6780   -1.4740 c3        1 MOL     -0.081137
     26 C12        -2.7690   -3.4080   -2.1660 c3        1 MOL      0.244593
     27 N3         -4.1400   -3.6140   -2.7630 n4        1 MOL     -0.426551
     28 H8          1.4470   -3.6530    0.6170 hn        1 MOL      0.311728
     29 H9          1.4640   -6.5950    0.4450 h1        1 MOL      0.123891
     30 H10        -0.7070   -5.8530    0.5650 hc        1 MOL      0.035498
     31 H11        -0.4990   -6.6550   -0.9440 hc        1 MOL      0.035498
     32 H12        -0.2230   -4.2400   -2.0030 hc        1 MOL      0.037494
     33 H13        -0.7480   -3.5670   -0.5800 hc        1 MOL      0.037494
     34 H14        -2.8990   -4.9240   -0.5720 hc        1 MOL      0.041382
     35 H15        -2.5290   -5.5060   -2.1510 hc        1 MOL      0.041382
     36 H16        -2.1470   -3.1610   -3.0360 hx        1 MOL      0.011648
     37 H17        -2.8230   -2.5430   -1.5040 hx        1 MOL      0.011648
     38 H18        -3.9940   -4.0470   -3.6600 hn        1 MOL      0.301033
     39 H19        -4.7170   -4.1300   -2.1180 hn        1 MOL      0.301033
     40 H20        -4.5270   -2.6910   -2.9160 hn        1 MOL      0.301033
     41 N4          2.9290   -4.6690   -1.3110 n         1 MOL     -0.301343
     42 C13         4.1020   -4.7100   -2.1650 c3        1 MOL      0.041370
     43 C14         5.4180   -4.4240   -1.4630 c         1 MOL      0.467247
     44 O6          6.3990   -4.9960   -1.8520 o         1 MOL     -0.526831
     45 C15         3.8960   -3.8170   -3.4110 c3        1 MOL     -0.266939
     46 C16         3.3460   -2.4560   -3.1080 c         1 MOL      0.726747
     47 O7          2.4280   -2.0380   -3.8630 o         1 MOL     -0.709113
     48 O8          3.7860   -1.8530   -2.0730 o         1 MOL     -0.709113
     49 H21         2.8190   -3.8970   -0.6620 hn        1 MOL      0.251581
     50 H22         4.2700   -5.7050   -2.5630 h1        1 MOL      0.107381
     51 H23         3.1830   -4.3120   -4.0710 hc        1 MOL      0.086310
     52 H24         4.8550   -3.7780   -3.9260 hc        1 MOL      0.086310
     53 N5          5.3660   -3.6830   -0.3390 n         1 MOL     -0.121048
     54 C17         6.4110   -3.2190    0.5160 c3        1 MOL     -0.265971
     55 C18         6.9810   -1.8340    0.2000 c         1 MOL      0.655404
     56 O9          7.9180   -1.4270    0.8690 o         1 MOL     -0.578531
     57 H25         4.4550   -3.2940   -0.1380 hn        1 MOL      0.051540
     58 H26         7.2880   -3.8530    0.3920 h1        1 MOL      0.124926
     59 H27         5.9950   -3.1600    1.5210 h1        1 MOL      0.124926
     60 N6          6.4970   -1.1290   -0.8230 n         1 MOL     -0.361940
     61 C19         6.9470    0.1080   -1.4490 c3        1 MOL      0.045948
     62 C20         6.1200    1.3290   -1.0100 c         1 MOL      0.551627
     63 O10         4.9010    1.1710   -0.7250 o         1 MOL     -0.508188
     64 C21         6.7290   -0.0210   -2.9660 c3        1 MOL     -0.137458
     65 C22         7.3720    1.1920   -3.5600 c         1 MOL      0.604170
     66 N7          8.6490    1.1810   -3.6260 n         1 MOL     -0.752814
     67 O11         6.6590    2.0790   -3.9720 o         1 MOL     -0.570187
     68 H28         5.8230   -1.6750   -1.3600 hn        1 MOL      0.228906
     69 H29         7.9640    0.3750   -1.1560 h1        1 MOL      0.027580
     70 H30         5.6430    0.0520   -3.0310 hc        1 MOL      0.062275
     71 H31         7.1280   -0.9420   -3.3810 hc        1 MOL      0.062275
     72 H32         9.2290    0.3680   -3.4530 hn        1 MOL      0.363464
     73 H33         9.0750    1.9180   -4.1790 hn        1 MOL      0.363464
     74 N8          6.6490    2.5420   -0.9410 n         1 MOL     -0.360098
     75 C23         5.9880    3.8450   -0.8410 c3        1 MOL     -0.084490
     76 C24         5.0880    4.0370    0.3700 c         1 MOL      0.631493
     77 O12         5.5250    3.8030    1.5280 o         1 MOL     -0.524071
     78 H34         7.6420    2.5520   -1.1060 hn        1 MOL      0.277100
     79 H35         5.4620    3.9370   -1.7940 h1        1 MOL      0.085641
     80 H36         6.7160    4.6620   -0.8630 h1        1 MOL      0.085641
     81 N9          3.8560    4.3320    0.0340 n         1 MOL     -0.872357
     82 C25         2.7850    4.5190    0.9700 c3        1 MOL      0.910085
     83 C26         2.2100    3.1630    1.2980 c         1 MOL      0.237954
     84 O13         2.6070    2.1320    0.7870 o         1 MOL     -0.404500
     85 C27         1.7910    5.4790    0.3670 c3        1 MOL     -0.179685
     86 C28         2.3310    6.8470   -0.0060 ca        1 MOL      0.085772
     87 C29         2.3460    7.2380   -1.3380 ca        1 MOL     -0.190923
     88 C30         2.8640    7.6570    1.0220 ca        1 MOL     -0.190923
     89 C31         3.0430    8.4530   -1.6890 ca        1 MOL     -0.225471
     90 C32         3.4790    8.8630    0.6610 ca        1 MOL     -0.225471
     91 C33         3.5150    9.2900   -0.6710 ca        1 MOL      0.305776
     92 O14         4.2820   10.3870   -0.9980 oh        1 MOL     -0.447153
     93 H37         3.5270    4.3340   -0.9220 hn        1 MOL      0.337643
     94 H38         3.0880    4.9820    1.9010 h1        1 MOL     -0.094569
     95 H39         1.0060    5.6140    1.1070 hc        1 MOL      0.002840
     96 H40         1.3990    4.9540   -0.4990 hc        1 MOL      0.002840
     97 H41         2.1130    6.4930   -2.0720 ha        1 MOL      0.138787
     98 H42         2.7540    7.3310    2.0480 ha        1 MOL      0.138787
     99 H43         3.2560    8.6740   -2.7230 ha        1 MOL      0.158747
    100 H44         3.7880    9.5950    1.3960 ha        1 MOL      0.158747
    101 H45         4.4240   10.3970   -1.9470 ho        1 MOL      0.339594
    102 N10         1.2650    3.1400    2.2310 n         1 MOL     -0.699624
    103 C34         0.7950    2.0050    2.9530 c3        1 MOL      0.264438
    104 C35         0.1000    1.0210    2.0700 c         1 MOL      0.681309
    105 O15         0.6910    0.3980    1.2060 o         1 MOL     -0.486057
    106 C36         1.7740    1.2480    3.9020 c3        1 MOL      0.247761
    107 C37         1.1690    0.2550    4.8930 c3        1 MOL      0.167865
    108 C38         2.6990    2.2230    4.6400 c3        1 MOL     -0.495896
    109 C39         0.1880    0.9120    5.8670 c3        1 MOL     -0.343608
    110 H46         1.0560    4.0500    2.6300 hn        1 MOL      0.323310
    111 H47        -0.0300    2.3410    3.5870 h1        1 MOL     -0.009006
    112 H48         2.3480    0.6300    3.2130 hc        1 MOL     -0.019611
    113 H49         1.9470   -0.3600    5.3380 hc        1 MOL     -0.032075
    114 H50         0.5620   -0.4810    4.3660 hc        1 MOL     -0.032075
    115 H51         2.1110    2.9560    5.1910 hc        1 MOL      0.129411
    116 H52         3.5310    1.7810    5.1780 hc        1 MOL      0.129411
    117 H53         3.1870    2.5940    3.7430 hc        1 MOL      0.129411
    118 H54         0.5840    1.7470    6.4580 hc        1 MOL      0.075636
    119 H55        -0.7150    1.1540    5.3060 hc        1 MOL      0.075636
    120 H56        -0.0700    0.1420    6.5950 hc        1 MOL      0.075636
    121 N11        -1.2030    0.8290    2.2160 n         1 MOL     -0.677484
    122 C40        -1.9410   -0.0290    1.2980 c3        1 MOL      0.043809
    123 C41        -3.4270    0.1900    1.1440 c         1 MOL      0.617687
    124 O16        -4.1610    0.3760    2.1020 o         1 MOL     -0.513265
    125 C42        -1.7160   -1.4830    1.7060 c3        1 MOL      0.220785
    126 O17        -2.4910   -2.3240    0.8790 oh        1 MOL     -0.648501
    127 H57        -1.6530    1.2480    3.0140 hn        1 MOL      0.330426
    128 H58        -1.5620    0.1530    0.2860 h1        1 MOL      0.085134
    129 H59        -2.1010   -1.6860    2.7090 h1        1 MOL      0.044238
    130 H60        -0.7220   -1.8970    1.5690 h1        1 MOL      0.044238
    131 H61        -2.2840   -3.1020    1.3890 ho        1 MOL      0.409921
    132 N12        -3.9530    0.0800   -0.1160 n         1 MOL     -0.503281
    133 C43        -5.2770    0.3660   -0.6250 c3        1 MOL      0.059885
    134 C44        -5.7050   -0.6100   -1.7970 c         1 MOL      0.731077
    135 O18        -4.8310   -0.9560   -2.5560 o         1 MOL     -0.593832
    136 C45        -5.2410    1.7960   -1.2260 c3        1 MOL     -0.241546
    137 H62        -3.2470   -0.0760   -0.8180 hn        1 MOL      0.229744
    138 H63        -5.9320    0.2670    0.2350 h1        1 MOL      0.117683
    139 H64        -4.4530    1.6250   -1.9710 hc        1 MOL      0.074766
    140 H65        -6.1840    1.9820   -1.7390 hc        1 MOL      0.074766
    141 H66        -5.0460    2.5960   -0.5080 hc        1 MOL      0.074766
    142 N13        -6.9360   -1.1340   -1.8870 n         1 MOL     -0.691585
    143 C46        -8.2040   -0.6620   -1.2060 c3        1 MOL      0.225064
    144 C47        -8.7720    0.6470   -1.9300 c         1 MOL      0.560616
    145 O19        -8.5940    0.8240   -3.1680 o         1 MOL     -0.527507
    146 C48        -9.1740   -1.8480   -1.2780 c3        1 MOL     -0.245076
    147 H67        -7.0730   -1.8140   -2.6230 hn        1 MOL      0.343143
    148 H68        -8.0150   -0.4090   -0.1620 h1        1 MOL      0.029687
    149 H69       -10.0300   -1.6950   -0.6050 hc        1 MOL      0.087928
    150 H70        -9.6170   -1.9890   -2.2590 hc        1 MOL      0.087928
    151 H71        -8.6560   -2.7640   -0.9960 hc        1 MOL      0.087928
    152 N14        -9.4590    1.5960   -1.2280 n         1 MOL     -0.575857
    153 C49       -10.1420    1.2770    0.0160 c3        1 MOL     -0.030728
    154 C50        -9.7610    2.2760    1.0620 c         1 MOL      0.429788
    155 O20       -10.0850    2.0650    2.2110 o         1 MOL     -0.488096
    156 C51       -11.7050    1.2640   -0.0620 c3        1 MOL      0.001663
    157 C52       -12.2520   -0.0030   -0.8080 c3        1 MOL     -0.179657
    158 C53       -13.6360    0.1010   -1.2600 c         1 MOL      0.673337
    159 O21       -13.8480    0.2510   -2.4930 o         1 MOL     -0.681514
    160 O22       -14.6290    0.0370   -0.4450 o         1 MOL     -0.681514
    161 H72        -9.6260    2.4610   -1.7100 hn        1 MOL      0.354101
    162 H73        -9.8750    0.2980    0.4190 h1        1 MOL      0.110701
    163 H74       -12.0750    2.1300   -0.6020 hc        1 MOL      0.052441
    164 H75       -12.1480    1.3070    0.9330 hc        1 MOL      0.052441
    165 H76       -12.0950   -0.8540   -0.1400 hc        1 MOL      0.029491
    166 H77       -11.5610   -0.1990   -1.6300 hc        1 MOL      0.029491
    167 N15        -9.1100    3.3920    0.7260 n         1 MOL     -0.311254
    168 C54        -8.2240    4.0560    1.6940 c3        1 MOL     -0.197841
    169 H78        -8.7830    4.2790    2.6030 h1        1 MOL      0.106648
    170 H79        -7.3890    3.3990    1.9340 h1        1 MOL      0.106648
    171 H80        -7.8460    4.9840    1.2640 h1        1 MOL      0.106648
    172 H81        -9.0330    3.6190   -0.2640 hn        1 MOL      0.247900
    173 Ca1         2.5610    0.0850   -0.8020 Ca        1 MOL      1.653036
    174 O23         0.3870   -1.2570   -1.7570 oh        1 MOL     -0.867347
    175 H82         0.5420   -1.8950   -2.4460 ho        1 MOL      0.421580
    176 H83        -0.4920   -0.9300   -1.9290 ho        1 MOL      0.421580
    177 O24         0.5700    1.7190   -1.5210 oh        1 MOL     -0.867347
    178 H84        -0.0700    2.3650   -1.2110 ho        1 MOL      0.421580
    179 H85         0.5090    1.7690   -2.4770 ho        1 MOL      0.421580
    180 O25         3.1160    0.8310   -3.2930 oh        1 MOL     -0.867347
    181 H86         3.0730    0.1620   -3.9690 ho        1 MOL      0.421580
    182 H87         3.3600    1.6330   -3.7450 ho        1 MOL      0.421580
@<TRIPOS>BOND
     1    1    2 1   
     2    1    4 1   
     3    1    5 1   
     4    1    6 1   
     5    2    3 2   
     6    2    7 1   
     7    7    8 1   
     8    7   15 1   
     9    8    9 1   
    10    8   11 1   
    11    8   16 1   
    12    9   10 2   
    13    9   19 1   
    14   11   12 1   
    15   11   17 1   
    16   11   18 1   
    17   12   13 1   
    18   12   14 1   
    19   19   20 1   
    20   19   28 1   
    21   20   21 1   
    22   20   23 1   
    23   20   29 1   
    24   21   22 2   
    25   21   41 1   
    26   23   24 1   
    27   23   30 1   
    28   23   31 1   
    29   24   25 1   
    30   24   32 1   
    31   24   33 1   
    32   25   26 1   
    33   25   34 1   
    34   25   35 1   
    35   26   27 1   
    36   26   36 1   
    37   26   37 1   
    38   27   38 1   
    39   27   39 1   
    40   27   40 1   
    41   41   42 1   
    42   41   49 1   
    43   42   43 1   
    44   42   45 1   
    45   42   50 1   
    46   43   44 2   
    47   43   53 1   
    48   45   46 1   
    49   45   51 1   
    50   45   52 1   
    51   46   47 1   
    52   46   48 1   
    53   53   54 1   
    54   53   57 1   
    55   54   55 1   
    56   54   58 1   
    57   54   59 1   
    58   55   56 2   
    59   55   60 1   
    60   60   61 1   
    61   60   68 1   
    62   61   62 1   
    63   61   64 1   
    64   61   69 1   
    65   62   63 2   
    66   62   74 1   
    67   64   65 1   
    68   64   70 1   
    69   64   71 1   
    70   65   66 1   
    71   65   67 2   
    72   66   72 1   
    73   66   73 1   
    74   74   75 1   
    75   74   78 1   
    76   75   76 1   
    77   75   79 1   
    78   75   80 1   
    79   76   77 2   
    80   76   81 1   
    81   81   82 1   
    82   81   93 1   
    83   82   83 1   
    84   82   85 1   
    85   82   94 1   
    86   83   84 2   
    87   83  102 1   
    88   85   86 1   
    89   85   95 1   
    90   85   96 1   
    91   86   87 ar  
    92   86   88 ar  
    93   87   89 ar  
    94   87   97 1   
    95   88   90 ar  
    96   88   98 1   
    97   89   91 ar  
    98   89   99 1   
    99   90   91 ar  
   100   90  100 1   
   101   91   92 1   
   102   92  101 1   
   103  102  103 1   
   104  102  110 1   
   105  103  104 1   
   106  103  106 1   
   107  103  111 1   
   108  104  105 2   
   109  104  121 1   
   110  106  107 1   
   111  106  108 1   
   112  106  112 1   
   113  107  109 1   
   114  107  113 1   
   115  107  114 1   
   116  108  115 1   
   117  108  116 1   
   118  108  117 1   
   119  109  118 1   
   120  109  119 1   
   121  109  120 1   
   122  121  122 1   
   123  121  127 1   
   124  122  123 1   
   125  122  125 1   
   126  122  128 1   
   127  123  124 2   
   128  123  132 1   
   129  125  126 1   
   130  125  129 1   
   131  125  130 1   
   132  126  131 1   
   133  132  133 1   
   134  132  137 1   
   135  133  134 1   
   136  133  136 1   
   137  133  138 1   
   138  134  135 2   
   139  134  142 1   
   140  136  139 1   
   141  136  140 1   
   142  136  141 1   
   143  142  143 1   
   144  142  147 1   
   145  143  144 1   
   146  143  146 1   
   147  143  148 1   
   148  144  145 2   
   149  144  152 1   
   150  146  149 1   
   151  146  150 1   
   152  146  151 1   
   153  152  153 1   
   154  152  161 1   
   155  153  154 1   
   156  153  156 1   
   157  153  162 1   
   158  154  155 2   
   159  154  167 1   
   160  156  157 1   
   161  156  163 1   
   162  156  164 1   
   163  157  158 1   
   164  157  165 1   
   165  157  166 1   
   166  158  159 1   
   167  158  160 1   
   168  167  168 1   
   169  167  172 1   
   170  168  169 1   
   171  168  170 1   
   172  168  171 1   
   173  174  175 1   
   174  174  176 1   
   175  177  178 1   
   176  177  179 1   
   177  180  181 1   
   178  180  182 1   
@<TRIPOS>SUBSTRUCTURE
     1 MOL         1 TEMP              0 ****  ****    0 ROOT
