@<TRIPOS>MOLECULE
MOL
  185   180     1     0     0
SMALL
resp


@<TRIPOS>ATOM
      1 C1         -6.4040   -1.5260    3.2620 c3        1 MOL     -0.502464
      2 C2         -6.5140   -1.5430    1.7650 c         1 MOL      0.912100
      3 O1         -5.7050   -0.9450    1.1190 o         1 MOL     -0.633079
      4 H1         -6.8360   -0.6030    3.6470 hc        1 MOL      0.123467
      5 H2         -6.9420   -2.3790    3.6760 hc        1 MOL      0.123467
      6 H3         -5.3540   -1.5830    3.5500 hc        1 MOL      0.123467
      7 N1         -7.6600   -2.0560    1.2110 n         1 MOL     -0.677586
      8 C3         -8.0120   -2.2980   -0.2370 c3        1 MOL      0.166724
      9 C4         -8.1760   -0.9730   -1.0380 c         1 MOL      0.449818
     10 O2         -8.2150   -1.0280   -2.2210 o         1 MOL     -0.482548
     11 C5         -6.9500   -3.2510   -0.8620 c3        1 MOL     -0.206319
     12 C6         -6.9010   -4.5960   -0.1670 c         1 MOL      0.697945
     13 O3         -5.8650   -5.3340   -0.3220 o         1 MOL     -0.635762
     14 O4         -7.7850   -5.0050    0.5840 o         1 MOL     -0.635762
     15 H4         -8.3440   -2.3200    1.9160 hn        1 MOL      0.305773
     16 H5         -8.9600   -2.8200   -0.3700 h1        1 MOL      0.056505
     17 H6         -5.9610   -2.8200   -0.7040 hc        1 MOL      0.069142
     18 H7         -7.1430   -3.4350   -1.9170 hc        1 MOL      0.069142
     19 N2         -8.2210    0.1770   -0.3210 n         1 MOL     -0.485048
     20 C7         -8.2610    1.5500   -0.9120 c3        1 MOL      0.087156
     21 C8         -6.8590    2.2040   -1.0620 c         1 MOL      0.448534
     22 O5         -6.8190    3.2110   -1.7760 o         1 MOL     -0.561516
     23 C9         -9.1430    2.3530    0.0590 c3        1 MOL      0.049548
     24 C10       -10.5020    1.7320    0.2260 c3        1 MOL     -0.111929
     25 C11       -11.3380    2.7510    1.0570 c3        1 MOL      0.093488
     26 C12       -12.7790    2.1860    1.0530 c3        1 MOL      0.028517
     27 N3        -13.6790    3.0150    1.9100 n4        1 MOL     -0.180871
     28 H8         -8.0070    0.1180    0.6660 hn        1 MOL      0.261564
     29 H9         -8.7240    1.5710   -1.9020 h1        1 MOL      0.119522
     30 H10        -9.2400    3.4130   -0.1980 hc        1 MOL     -0.006951
     31 H11        -8.6220    2.3820    1.0210 hc        1 MOL     -0.006951
     32 H12       -10.3640    0.8220    0.8060 hc        1 MOL      0.037773
     33 H13       -10.8680    1.6060   -0.7860 hc        1 MOL      0.037773
     34 H14       -11.2870    3.7880    0.7250 hc        1 MOL      0.007842
     35 H15       -11.1020    2.7110    2.1250 hc        1 MOL      0.007842
     36 H16       -12.7550    1.1640    1.4290 hx        1 MOL      0.062482
     37 H17       -13.2080    2.2470    0.0520 hx        1 MOL      0.062482
     38 H18       -14.6180    2.6290    1.8260 hn        1 MOL      0.213941
     39 H19       -13.3950    3.0950    2.8750 hn        1 MOL      0.213941
     40 H20       -13.8630    3.8860    1.4360 hn        1 MOL      0.213941
     41 N4         -5.7410    1.5440   -0.6560 n         1 MOL     -0.266194
     42 C13        -4.3340    1.9390   -0.8270 c3        1 MOL     -0.093432
     43 C14        -3.8820    1.5680   -2.1880 c         1 MOL      0.685284
     44 O6         -4.1100    0.4360   -2.6200 o         1 MOL     -0.505420
     45 C15        -3.4600    1.2390    0.1940 c3        1 MOL     -0.069640
     46 C16        -1.9520    1.6280    0.2440 c         1 MOL      0.565297
     47 O7         -1.1380    1.0340   -0.5250 o         1 MOL     -0.635030
     48 O8         -1.5520    2.6080    0.8600 o         1 MOL     -0.635030
     49 H21        -5.8800    0.6880   -0.1300 hn        1 MOL      0.226683
     50 H22        -4.2630    3.0280   -0.7400 h1        1 MOL      0.067190
     51 H23        -3.4480    0.1770   -0.0210 hc        1 MOL      0.028346
     52 H24        -3.8750    1.4010    1.1870 hc        1 MOL      0.028346
     53 N5         -3.1680    2.4060   -2.9400 n         1 MOL     -0.454543
     54 C17        -2.7650    2.1030   -4.3260 c3        1 MOL     -0.132148
     55 C18        -1.7340    0.9250   -4.4040 c         1 MOL      0.411541
     56 O9         -1.6450    0.2760   -5.4500 o         1 MOL     -0.534640
     57 H25        -2.9460    3.3200   -2.5750 hn        1 MOL      0.286587
     58 H26        -2.3830    3.0040   -4.8020 h1        1 MOL      0.121636
     59 H27        -3.6320    1.7700   -4.8960 h1        1 MOL      0.121636
     60 N6         -1.0080    0.5780   -3.3420 n         1 MOL     -0.282928
     61 C19        -0.2020   -0.6670   -3.2880 c3        1 MOL      0.117412
     62 C20        -0.8970   -1.7680   -2.4770 c         1 MOL      0.278775
     63 O10        -0.2890   -2.8620   -2.3570 o         1 MOL     -0.479053
     64 C21         1.1820   -0.3430   -2.6880 c3        1 MOL     -0.274506
     65 C22         1.8250    0.8070   -3.3070 c         1 MOL      0.611822
     66 N7          2.3700    0.6400   -4.4940 n         1 MOL     -0.770670
     67 O11         1.8460    1.8540   -2.6600 o         1 MOL     -0.647887
     68 H28        -1.4540    0.8910   -2.4900 hn        1 MOL      0.371095
     69 H29        -0.1490   -1.0800   -4.2900 h1        1 MOL      0.094597
     70 H30         1.8160   -1.2320   -2.6700 hc        1 MOL      0.113539
     71 H31         1.1410   -0.2340   -1.6010 hc        1 MOL      0.113539
     72 H32         2.3600   -0.2000   -5.0590 hn        1 MOL      0.383661
     73 H33         2.7450    1.5230   -4.8290 hn        1 MOL      0.383661
     74 N8         -2.1070   -1.5620   -1.9480 n         1 MOL     -0.002078
     75 C23        -2.7630   -2.5900   -1.0530 c3        1 MOL     -0.261542
     76 C24        -2.2130   -2.5400    0.3790 c         1 MOL      0.664729
     77 O12        -2.4900   -3.4250    1.1920 o         1 MOL     -0.536974
     78 H34        -2.6730   -0.7840   -2.2300 hn        1 MOL      0.089519
     79 H35        -2.7110   -3.6440   -1.3040 h1        1 MOL      0.142185
     80 H36        -3.7720   -2.1750   -1.0080 h1        1 MOL      0.142185
     81 N9         -1.3960   -1.5530    0.7460 n         1 MOL     -0.498248
     82 C25        -0.5170   -1.7810    1.9390 c3        1 MOL      0.135773
     83 C26         0.8460   -1.3090    1.5570 c         1 MOL      0.528128
     84 O13         1.1200   -0.2270    1.0150 o         1 MOL     -0.528949
     85 C27        -1.1100   -1.1340    3.1600 c3        1 MOL     -0.280472
     86 C28        -0.3070   -1.0440    4.4030 ca        1 MOL      0.181222
     87 C29         0.1710   -2.2150    5.0550 ca        1 MOL     -0.232266
     88 C30        -0.1350    0.2320    4.9530 ca        1 MOL     -0.232266
     89 C31         0.9010   -1.9950    6.2500 ca        1 MOL     -0.208908
     90 C32         0.6980    0.3930    6.1180 ca        1 MOL     -0.208908
     91 C33         1.1030   -0.7710    6.8410 ca        1 MOL      0.276644
     92 O14         1.9350   -0.7700    7.9400 oh        1 MOL     -0.496314
     93 H37        -1.0660   -0.8470    0.0970 hn        1 MOL      0.171896
     94 H38        -0.4540   -2.8610    2.0450 h1        1 MOL      0.047489
     95 H39        -1.9940   -1.6800    3.4900 hc        1 MOL      0.128450
     96 H40        -1.4420   -0.1310    2.9070 hc        1 MOL      0.128450
     97 H41         0.0230   -3.2270    4.7220 ha        1 MOL      0.166323
     98 H42        -0.4410    1.1160    4.3970 ha        1 MOL      0.166323
     99 H43         1.2880   -2.8720    6.7290 ha        1 MOL      0.130891
    100 H44         0.9310    1.3980    6.4510 ha        1 MOL      0.130891
    101 H45         2.2010    0.0830    8.2850 ho        1 MOL      0.380238
    102 N10         1.8990   -2.0830    1.8130 n         1 MOL     -0.563582
    103 C34         3.2950   -1.6660    1.3830 c3        1 MOL      0.548631
    104 C35         3.5150   -2.0390   -0.0770 c         1 MOL      0.067623
    105 O15         3.9990   -1.2550   -0.8120 o         1 MOL     -0.194751
    106 C36         4.3320   -2.2900    2.4150 c3        1 MOL     -0.205236
    107 C37         4.0880   -1.8360    3.8620 c3        1 MOL     -0.039539
    108 C38         5.8060   -1.8800    2.0620 c3        1 MOL     -0.007973
    109 C39         3.9620   -0.2850    4.1430 c3        1 MOL     -0.414371
    110 H46         1.7560   -2.9420    2.3250 hn        1 MOL      0.278172
    111 H47         3.5000   -0.5990    1.4140 h1        1 MOL      0.038825
    112 H48         4.4080   -3.3760    2.3600 hc        1 MOL      0.025375
    113 H49         4.9550   -2.0950    4.4690 hc        1 MOL      0.065285
    114 H50         3.2410   -2.3890    4.2740 hc        1 MOL      0.065285
    115 H51         6.5580   -2.2860    2.7450 hc        1 MOL      0.021774
    116 H52         6.0590   -2.3750    1.1270 hc        1 MOL      0.021774
    117 H53         5.8840   -0.7890    2.0710 hc        1 MOL      0.021774
    118 H54         3.1650    0.0370    3.4850 hc        1 MOL      0.117122
    119 H55         3.6690   -0.1920    5.1930 hc        1 MOL      0.117122
    120 H56         4.9450    0.1660    4.0260 hc        1 MOL      0.117122
    121 N11         3.1690   -3.2450   -0.5480 n         1 MOL     -0.233724
    122 C40         3.4610   -3.6710   -1.9330 c3        1 MOL     -0.250520
    123 C41         4.9750   -3.5840   -2.2880 c         1 MOL      0.429527
    124 O16         5.3630   -3.2870   -3.4210 o         1 MOL     -0.474632
    125 C42         2.8220   -4.9520   -2.3250 c3        1 MOL      0.447345
    126 O17         1.5050   -5.0780   -1.8970 oh        1 MOL     -0.636961
    127 H57         2.8460   -3.8970    0.1460 hn        1 MOL      0.240019
    128 H58         2.9670   -2.9320   -2.5740 h1        1 MOL      0.120769
    129 H59         3.4850   -5.7440   -1.9760 h1        1 MOL     -0.015394
    130 H60         2.8450   -5.0300   -3.4220 h1        1 MOL     -0.015394
    131 H61         0.9940   -4.2630   -1.8870 ho        1 MOL      0.376673
    132 N12         5.8110   -3.7900   -1.2910 n         1 MOL     -0.337848
    133 C43         7.2410   -3.5510   -1.1830 c3        1 MOL      0.195562
    134 C44         7.7280   -2.0940   -1.5750 c         1 MOL      0.460697
    135 O18         8.7870   -1.9330   -2.1040 o         1 MOL     -0.526297
    136 C45         7.9720   -4.5820   -2.0190 c3        1 MOL     -0.307596
    137 H62         5.3570   -4.0550   -0.4260 hn        1 MOL      0.257774
    138 H63         7.5370   -3.7010   -0.1370 h1        1 MOL      0.053633
    139 H64         9.0120   -4.4840   -1.6970 hc        1 MOL      0.091136
    140 H65         7.6890   -5.6130   -1.8180 hc        1 MOL      0.091136
    141 H66         7.9080   -4.4090   -3.0910 hc        1 MOL      0.091136
    142 N13         6.9290   -1.0590   -1.3550 n         1 MOL     -0.206479
    143 C46         7.1940    0.3060   -1.7820 c3        1 MOL      0.609669
    144 C47         7.0300    1.3110   -0.6330 c         1 MOL      0.164107
    145 O19         6.4680    1.0660    0.4010 o         1 MOL     -0.374497
    146 C48         6.2630    0.6280   -2.9670 c3        1 MOL     -0.452690
    147 H67         6.0250   -1.2120   -0.9320 hn        1 MOL     -0.277548
    148 H68         8.2270    0.3480   -2.1390 h1        1 MOL     -0.070617
    149 H69         6.7180    0.2950   -3.9000 hc        1 MOL      0.126445
    150 H70         5.3570    0.0210   -2.9330 hc        1 MOL      0.126445
    151 H71         6.0590    1.6950   -2.9240 hc        1 MOL      0.126445
    152 N14         7.4950    2.5570   -0.8400 n         1 MOL     -0.436796
    153 C49         7.4580    3.6090    0.1630 c3        1 MOL     -0.060122
    154 C50         8.1340    3.4280    1.5310 c         1 MOL      0.425836
    155 O20         8.0380    4.3430    2.3270 o         1 MOL     -0.499297
    156 C51         6.0350    4.2150    0.3090 c3        1 MOL      0.049343
    157 C52         5.1940    4.5630   -0.9830 c3        1 MOL      0.050044
    158 C53         3.7870    4.8960   -0.5570 c         1 MOL      0.563120
    159 O21         3.5090    5.9880   -0.0010 o         1 MOL     -0.677907
    160 O22         2.8350    4.1010   -0.7430 o         1 MOL     -0.677907
    161 H72         7.8670    2.7840   -1.7470 hn        1 MOL      0.295683
    162 H73         8.0540    4.3500   -0.3670 h1        1 MOL      0.095824
    163 H74         6.0600    5.1400    0.8870 hc        1 MOL      0.016660
    164 H75         5.4080    3.4620    0.7680 hc        1 MOL      0.016660
    165 H76         5.2340    3.7950   -1.7610 hc        1 MOL     -0.017073
    166 H77         5.5700    5.4530   -1.4790 hc        1 MOL     -0.017073
    167 N15         8.9030    2.3760    1.6780 n         1 MOL     -0.228267
    168 C54         9.5030    1.9740    2.9550 c3        1 MOL     -0.084705
    169 H78         9.1280    2.6180    3.7510 h1        1 MOL      0.072137
    170 H79         9.2400    0.9380    3.1710 h1        1 MOL      0.072137
    171 H80        10.5870    2.0680    2.8930 h1        1 MOL      0.072137
    172 H81         9.1160    1.8480    0.8390 hn        1 MOL      0.229745
    173 Ca1         1.0470    2.4490   -0.0010 Ca        1 MOL      1.678524
    174 O23         3.3560    1.3000   -0.1640 oh        1 MOL     -0.853863
    175 H82         4.1120    1.7580    0.2040 ho        1 MOL      0.412119
    176 H83         3.7340    0.5330   -0.6080 ho        1 MOL      0.412119
    177 O24         1.6020    2.5510    2.6390 oh        1 MOL     -0.853863
    178 H84         2.4360    2.4080    3.0840 ho        1 MOL      0.412119
    179 H85         1.0860    3.0680    3.2500 ho        1 MOL      0.412119
    180 O25         0.6450    5.0450    0.5900 oh        1 MOL     -0.853863
    181 H86         1.4680    5.1380    0.1220 ho        1 MOL      0.412119
    182 H87         0.6570    5.7480    1.2400 ho        1 MOL      0.412119
    183 O26        -0.4970    3.8340   -2.0080 oh        1 MOL     -0.853863
    184 H88        -0.1840    3.9640   -2.9060 ho        1 MOL      0.412119
    185 H89        -0.8650    4.6900   -1.7620 ho        1 MOL      0.412119
@<TRIPOS>BOND
     1    1    2 1   
     2    1    4 1   
     3    1    5 1   
     4    1    6 1   
     5    2    3 2   
     6    2    7 1   
     7    7    8 1   
     8    7   15 1   
     9    8    9 1   
    10    8   11 1   
    11    8   16 1   
    12    9   10 2   
    13    9   19 1   
    14   11   12 1   
    15   11   17 1   
    16   11   18 1   
    17   12   13 1   
    18   12   14 1   
    19   19   20 1   
    20   19   28 1   
    21   20   21 1   
    22   20   23 1   
    23   20   29 1   
    24   21   22 2   
    25   21   41 1   
    26   23   24 1   
    27   23   30 1   
    28   23   31 1   
    29   24   25 1   
    30   24   32 1   
    31   24   33 1   
    32   25   26 1   
    33   25   34 1   
    34   25   35 1   
    35   26   27 1   
    36   26   36 1   
    37   26   37 1   
    38   27   38 1   
    39   27   39 1   
    40   27   40 1   
    41   41   42 1   
    42   41   49 1   
    43   42   43 1   
    44   42   45 1   
    45   42   50 1   
    46   43   44 2   
    47   43   53 1   
    48   45   46 1   
    49   45   51 1   
    50   45   52 1   
    51   46   47 1   
    52   46   48 1   
    53   53   54 1   
    54   53   57 1   
    55   54   55 1   
    56   54   58 1   
    57   54   59 1   
    58   55   56 2   
    59   55   60 1   
    60   60   61 1   
    61   60   68 1   
    62   61   62 1   
    63   61   64 1   
    64   61   69 1   
    65   62   63 2   
    66   62   74 1   
    67   64   65 1   
    68   64   70 1   
    69   64   71 1   
    70   65   66 1   
    71   65   67 2   
    72   66   72 1   
    73   66   73 1   
    74   74   75 1   
    75   74   78 1   
    76   75   76 1   
    77   75   79 1   
    78   75   80 1   
    79   76   77 2   
    80   76   81 1   
    81   81   82 1   
    82   81   93 1   
    83   82   83 1   
    84   82   85 1   
    85   82   94 1   
    86   83   84 2   
    87   83  102 1   
    88   85   86 1   
    89   85   95 1   
    90   85   96 1   
    91   86   87 ar  
    92   86   88 ar  
    93   87   89 ar  
    94   87   97 1   
    95   88   90 ar  
    96   88   98 1   
    97   89   91 ar  
    98   89   99 1   
    99   90   91 ar  
   100   90  100 1   
   101   91   92 1   
   102   92  101 1   
   103  102  103 1   
   104  102  110 1   
   105  103  104 1   
   106  103  106 1   
   107  103  111 1   
   108  104  105 2   
   109  104  121 1   
   110  106  107 1   
   111  106  108 1   
   112  106  112 1   
   113  107  109 1   
   114  107  113 1   
   115  107  114 1   
   116  108  115 1   
   117  108  116 1   
   118  108  117 1   
   119  109  118 1   
   120  109  119 1   
   121  109  120 1   
   122  121  122 1   
   123  121  127 1   
   124  122  123 1   
   125  122  125 1   
   126  122  128 1   
   127  123  124 2   
   128  123  132 1   
   129  125  126 1   
   130  125  129 1   
   131  125  130 1   
   132  126  131 1   
   133  132  133 1   
   134  132  137 1   
   135  133  134 1   
   136  133  136 1   
   137  133  138 1   
   138  134  135 2   
   139  134  142 1   
   140  136  139 1   
   141  136  140 1   
   142  136  141 1   
   143  142  143 1   
   144  142  147 1   
   145  143  144 1   
   146  143  146 1   
   147  143  148 1   
   148  144  145 2   
   149  144  152 1   
   150  146  149 1   
   151  146  150 1   
   152  146  151 1   
   153  152  153 1   
   154  152  161 1   
   155  153  154 1   
   156  153  156 1   
   157  153  162 1   
   158  154  155 2   
   159  154  167 1   
   160  156  157 1   
   161  156  163 1   
   162  156  164 1   
   163  157  158 1   
   164  157  165 1   
   165  157  166 1   
   166  158  159 1   
   167  158  160 1   
   168  167  168 1   
   169  167  172 1   
   170  168  169 1   
   171  168  170 1   
   172  168  171 1   
   173  174  175 1   
   174  174  176 1   
   175  177  178 1   
   176  177  179 1   
   177  180  181 1   
   178  180  182 1   
   179  183  184 1   
   180  183  185 1   
@<TRIPOS>SUBSTRUCTURE
     1 MOL         1 TEMP              0 ****  ****    0 ROOT
