@<TRIPOS>MOLECULE
MOL
  192   187     1     0     0
SMALL
resp


@<TRIPOS>ATOM
      1 C1          8.7860    0.6030    2.4360 c3        1 MOL     -0.582275
      2 C2          7.8250    0.4360    1.2190 c         1 MOL      0.748039
      3 O1          6.5870    0.5260    1.3970 o         1 MOL     -0.660280
      4 H1          9.0760    1.6500    2.5280 hc        1 MOL      0.148032
      5 H2          8.2780    0.2860    3.3470 hc        1 MOL      0.148032
      6 H3          9.6760   -0.0080    2.2840 hc        1 MOL      0.148032
      7 N1          8.3650   -0.0260    0.1070 n         1 MOL     -0.473153
      8 C3          7.6030   -0.2410   -1.1180 c3        1 MOL     -0.202424
      9 C4          6.9410   -1.5890   -1.2000 c         1 MOL      0.569656
     10 O2          6.4840   -2.0730   -2.2540 o         1 MOL     -0.466759
     11 C5          8.4280    0.1230   -2.3480 c3        1 MOL     -0.241045
     12 C6          9.7690   -0.5430   -2.2670 c         1 MOL      0.771517
     13 O3         10.7400    0.1760   -2.0080 o         1 MOL     -0.676665
     14 O4          9.9390   -1.7740   -2.4590 o         1 MOL     -0.676665
     15 H4          9.3060   -0.3920    0.1710 hn        1 MOL      0.298165
     16 H5          6.7840    0.4830   -1.0700 h1        1 MOL      0.221276
     17 H6          8.5780    1.1990   -2.2760 hc        1 MOL      0.083348
     18 H7          7.8740    0.0510   -3.2890 hc        1 MOL      0.083348
     19 N2          6.9130   -2.3190   -0.0500 n         1 MOL     -0.444038
     20 C7          6.2290   -3.6730    0.0970 c3        1 MOL      0.055790
     21 C8          4.8030   -3.8520   -0.3030 c         1 MOL      0.595925
     22 O5          4.5150   -4.9350   -0.7390 o         1 MOL     -0.582365
     23 C9          6.2430   -4.1080    1.5190 c3        1 MOL     -0.053577
     24 C10         7.6410   -4.2400    2.0690 c3        1 MOL     -0.153036
     25 C11         7.7340   -4.4200    3.5420 c3        1 MOL     -0.136443
     26 C12         9.2450   -4.3920    3.8590 c3        1 MOL      0.068831
     27 N3          9.5950   -4.7450    5.2830 n4        1 MOL     -0.162113
     28 H8          7.4740   -2.0300    0.7360 hn        1 MOL      0.294487
     29 H9          6.8000   -4.4410   -0.4270 h1        1 MOL      0.080968
     30 H10         5.6830   -5.0260    1.7070 hc        1 MOL      0.061148
     31 H11         5.7480   -3.2990    2.0570 hc        1 MOL      0.061148
     32 H12         8.2280   -3.3760    1.7810 hc        1 MOL      0.073372
     33 H13         8.0880   -5.1490    1.6510 hc        1 MOL      0.073372
     34 H14         7.2940   -5.3880    3.7940 hc        1 MOL      0.070592
     35 H15         7.1830   -3.6700    4.1070 hc        1 MOL      0.070592
     36 H16         9.6170   -3.4340    3.4890 hx        1 MOL      0.061763
     37 H17         9.7690   -5.1820    3.3100 hx        1 MOL      0.061763
     38 H18         9.3090   -3.8930    5.7580 hn        1 MOL      0.226572
     39 H19         9.0070   -5.4860    5.6390 hn        1 MOL      0.226572
     40 H20        10.5840   -4.8650    5.4380 hn        1 MOL      0.226572
     41 N4          3.8990   -2.9180   -0.1960 n         1 MOL     -0.536718
     42 C13         3.9010   -1.5720    0.4240 c3        1 MOL      0.099255
     43 C14         3.8290   -0.4510   -0.5770 c         1 MOL      0.270239
     44 O6          3.5020   -0.5350   -1.7310 o         1 MOL     -0.440401
     45 C15         2.8410   -1.4210    1.4300 c3        1 MOL     -0.050738
     46 C16         1.4510   -1.6870    0.8710 c         1 MOL      0.712782
     47 O7          1.0470   -1.0900   -0.1080 o         1 MOL     -0.727971
     48 O8          0.7500   -2.5540    1.4310 o         1 MOL     -0.727971
     49 H21         3.0820   -3.1710   -0.7340 hn        1 MOL      0.380296
     50 H22         4.8450   -1.5050    0.9610 h1        1 MOL      0.042125
     51 H23         2.8860   -0.4630    1.9450 hc        1 MOL     -0.006323
     52 H24         3.0350   -2.1870    2.1840 hc        1 MOL     -0.006323
     53 N5          4.2140    0.7160   -0.1100 n         1 MOL     -0.087405
     54 C17         4.2960    1.9880   -0.8350 c3        1 MOL     -0.314959
     55 C18         3.0040    2.5410   -1.3470 c         1 MOL      0.753557
     56 O9          1.9190    1.9800   -1.0100 o         1 MOL     -0.653538
     57 H25         4.5780    0.7070    0.8340 hn        1 MOL      0.257326
     58 H26         4.9420    1.9300   -1.7150 h1        1 MOL      0.101079
     59 H27         4.7900    2.6070   -0.0850 h1        1 MOL      0.101079
     60 N6          3.0500    3.5820   -2.1380 n         1 MOL     -0.506282
     61 C19         1.8150    4.3900   -2.4460 c3        1 MOL      0.162712
     62 C20         2.2170    5.8450   -2.4910 c         1 MOL      0.373444
     63 O10         3.3780    6.2310   -2.5440 o         1 MOL     -0.507514
     64 C21         1.3330    4.0250   -3.8580 c3        1 MOL     -0.187019
     65 C22         0.9200    2.5840   -3.9930 c         1 MOL      0.671212
     66 O11         1.4770    1.8670   -4.8300 o         1 MOL     -0.680338
     67 O12         0.0210    2.2430   -3.2350 o         1 MOL     -0.680338
     68 H28         3.9030    4.0100   -2.4390 hn        1 MOL      0.319037
     69 H29         0.9980    4.3430   -1.7220 h1        1 MOL      0.097421
     70 H30         2.1060    4.2940   -4.5780 hc        1 MOL      0.061013
     71 H31         0.4670    4.6610   -4.0740 hc        1 MOL      0.061013
     72 N7          1.2660    6.8150   -2.5060 n         1 MOL     -0.341200
     73 C23        -0.2240    6.7950   -2.4930 c3        1 MOL     -0.273262
     74 C24        -0.8040    6.2230   -1.1520 c         1 MOL      0.714149
     75 O13        -0.2150    6.4490   -0.0750 o         1 MOL     -0.548402
     76 H32         1.6680    7.7410   -2.3810 hn        1 MOL      0.303536
     77 H33        -0.5810    6.2500   -3.3680 h1        1 MOL      0.126119
     78 H34        -0.6100    7.8120   -2.4300 h1        1 MOL      0.126119
     79 N8         -1.8910    5.4480   -1.1370 n         1 MOL     -0.624460
     80 C25        -2.5380    4.8300    0.0510 c3        1 MOL      0.043894
     81 C26        -1.6650    3.7900    0.6930 c         1 MOL      0.626350
     82 O14        -1.0530    2.9800   -0.0860 o         1 MOL     -0.769412
     83 C27        -3.7720    3.9860   -0.3980 c3        1 MOL      0.534225
     84 C28        -4.7960    4.8500   -1.0050 c3        1 MOL     -0.350190
     85 O15        -4.3250    3.4420    0.7490 oh        1 MOL     -0.663946
     86 H35        -2.3230    5.2630   -2.0310 hn        1 MOL      0.291489
     87 H36        -2.9470    5.4780    0.8240 h1        1 MOL      0.043561
     88 H37        -3.5160    3.1960   -1.1010 h1        1 MOL      0.012784
     89 H38        -4.7960    4.1300    1.2230 ho        1 MOL      0.390476
     90 H39        -4.3610    5.5290   -1.7410 hc        1 MOL      0.085863
     91 H40        -5.4880    4.2150   -1.5640 hc        1 MOL      0.085863
     92 H41        -5.2850    5.4760   -0.2600 hc        1 MOL      0.085863
     93 N9         -1.4630    3.9100    2.0080 n         1 MOL     -0.493155
     94 C29        -0.5780    2.9990    2.7870 c3        1 MOL      0.249092
     95 C30        -0.8800    1.5520    2.4560 c         1 MOL      0.064980
     96 O16        -0.1950    0.8450    1.6360 o         1 MOL     -0.493825
     97 C31         0.9310    3.3050    2.5670 c3        1 MOL      0.347890
     98 C32         1.2880    4.7820    2.8140 c3        1 MOL     -0.092024
     99 C33         1.8080    2.3820    3.4040 c3        1 MOL     -0.543576
    100 C34         0.9040    5.3530    4.1780 c3        1 MOL     -0.187458
    101 H42        -2.0290    4.6220    2.4370 hn        1 MOL      0.268142
    102 H43        -0.8050    3.1920    3.8360 h1        1 MOL      0.030349
    103 H44         1.3460    3.0900    1.5810 hc        1 MOL     -0.013037
    104 H45         0.6530    5.3710    2.1490 hc        1 MOL      0.059633
    105 H46         2.3190    4.9550    2.5350 hc        1 MOL      0.059633
    106 H47         2.8750    2.4510    3.1590 hc        1 MOL      0.131458
    107 H48         1.7770    2.5310    4.4870 hc        1 MOL      0.131458
    108 H49         1.5600    1.3280    3.2780 hc        1 MOL      0.131458
    109 H50        -0.0890    5.8100    4.1610 hc        1 MOL      0.035423
    110 H51         0.8980    4.5460    4.9080 hc        1 MOL      0.035423
    111 H52         1.6320    6.1350    4.4010 hc        1 MOL      0.035423
    112 N10        -1.9180    1.0970    3.0740 n         1 MOL     -0.004671
    113 C35        -2.4030   -0.2830    2.7960 c3        1 MOL     -0.544127
    114 C36        -3.9240   -0.4820    2.7730 c         1 MOL      0.855339
    115 O17        -4.4190   -1.5920    3.0070 o         1 MOL     -0.583005
    116 C37        -1.7560   -1.2430    3.7520 c3        1 MOL      0.442516
    117 C38        -2.2650   -1.1660    5.1730 c3        1 MOL     -0.127073
    118 O18        -0.4420   -1.1560    3.9050 oh        1 MOL     -0.587998
    119 H53        -2.3930    1.7530    3.6820 hn        1 MOL      0.212920
    120 H54        -2.1760   -0.5810    1.7700 h1        1 MOL      0.195912
    121 H55        -2.0180   -2.2620    3.4420 h1        1 MOL      0.021192
    122 H56        -0.0070   -1.1470    3.0430 ho        1 MOL      0.391601
    123 H57        -1.6980   -1.8490    5.8130 hc        1 MOL      0.019654
    124 H58        -2.2170   -0.1580    5.5700 hc        1 MOL      0.019654
    125 H59        -3.2820   -1.5460    5.2830 hc        1 MOL      0.019654
    126 N11        -4.7960    0.5960    2.5970 n         1 MOL     -0.506520
    127 C39        -6.2370    0.4710    2.5900 c3        1 MOL     -0.084967
    128 C40        -6.7390   -0.1880    1.3230 c         1 MOL      0.626012
    129 O19        -7.0930    0.4580    0.3100 o         1 MOL     -0.549949
    130 C41        -6.9080    1.8630    2.8000 c3        1 MOL      0.489193
    131 C42        -8.3620    1.7170    3.1290 c3        1 MOL     -0.442479
    132 O20        -6.3730    2.5120    3.8710 oh        1 MOL     -0.661467
    133 H60        -4.4380    1.4940    2.3070 hn        1 MOL      0.246830
    134 H61        -6.5180   -0.2480    3.3590 h1        1 MOL      0.066135
    135 H62        -6.8000    2.4450    1.8840 h1        1 MOL     -0.002305
    136 H63        -6.9280    2.3660    4.6460 ho        1 MOL      0.403548
    137 H64        -8.5690    0.9310    3.8510 hc        1 MOL      0.106852
    138 H65        -8.7780    2.6740    3.4550 hc        1 MOL      0.106852
    139 H66        -8.9690    1.5350    2.2360 hc        1 MOL      0.106852
    140 N12        -6.6870   -1.5190    1.3720 n         1 MOL     -0.754736
    141 C43        -6.6410   -2.4910    0.1940 c3        1 MOL      0.322389
    142 C44        -5.3980   -2.2390   -0.8010 c         1 MOL      0.343313
    143 O21        -5.0850   -1.0550   -0.9210 o         1 MOL     -0.436635
    144 C45        -7.9430   -2.5950   -0.6240 c3        1 MOL     -0.356340
    145 C46        -9.1930   -2.8470    0.2560 c3        1 MOL     -0.023116
    146 C47       -10.3530   -3.1650   -0.6660 c3        1 MOL      0.039098
    147 C48       -11.7490   -3.1900    0.0430 c3        1 MOL      0.065103
    148 N13       -12.7310   -3.6920   -0.9150 n4        1 MOL     -0.188032
    149 H67        -6.2810   -1.9150    2.2120 hn        1 MOL      0.377681
    150 H68        -6.5570   -3.5120    0.5460 h1        1 MOL     -0.006683
    151 H69        -7.7670   -3.2720   -1.4580 hc        1 MOL      0.143283
    152 H70        -8.0410   -1.6160   -1.0900 hc        1 MOL      0.143283
    153 H71        -9.5670   -1.9640    0.7890 hc        1 MOL      0.057520
    154 H72        -9.0190   -3.6660    0.9630 hc        1 MOL      0.057520
    155 H73       -10.1530   -4.1610   -1.0660 hc        1 MOL      0.008274
    156 H74       -10.4370   -2.4700   -1.5050 hc        1 MOL      0.008274
    157 H75       -11.9730   -2.1630    0.3360 hx        1 MOL      0.054190
    158 H76       -11.7270   -3.7380    0.9820 hx        1 MOL      0.054190
    159 H77       -13.6760   -3.3870   -0.7540 hn        1 MOL      0.224795
    160 H78       -12.4700   -3.3380   -1.8300 hn        1 MOL      0.224795
    161 H79       -12.7410   -4.6950   -1.0070 hn        1 MOL      0.224795
    162 N14        -4.6480   -3.2650   -1.2070 n         1 MOL     -0.426353
    163 C49        -3.3750   -3.1280   -1.8880 c3        1 MOL      0.366178
    164 C50        -2.1500   -2.8070   -0.9830 c         1 MOL      0.236329
    165 O22        -1.5110   -1.7550   -1.1150 o         1 MOL     -0.437475
    166 C51        -3.1750   -4.3720   -2.7820 c3        1 MOL      0.188194
    167 C52        -4.2900   -4.5240   -3.8270 c3        1 MOL     -0.055165
    168 C53        -3.8320   -5.4670   -5.0000 c         1 MOL      0.621194
    169 O23        -3.3330   -4.8510   -5.9920 o         1 MOL     -0.617440
    170 O24        -3.9530   -6.7110   -4.8940 o         1 MOL     -0.617440
    171 H80        -4.9300   -4.2230   -1.0390 hn        1 MOL      0.305360
    172 H81        -3.4770   -2.3000   -2.5840 h1        1 MOL      0.027192
    173 H82        -3.2060   -5.2190   -2.1010 hc        1 MOL     -0.045956
    174 H83        -2.2050   -4.3280   -3.2920 hc        1 MOL     -0.045956
    175 H84        -4.5550   -3.5220   -4.1500 hc        1 MOL     -0.076129
    176 H85        -5.1860   -4.8930   -3.3270 hc        1 MOL     -0.076129
    177 N15        -1.7790   -3.6740   -0.0100 n         1 MOL     -0.390532
    178 C54        -2.4240   -4.9090    0.5550 c3        1 MOL     -0.017329
    179 H86        -1.8510   -5.7870    0.2540 h1        1 MOL      0.040924
    180 H87        -2.4440   -4.8450    1.6420 h1        1 MOL      0.040924
    181 H88        -3.4420   -4.9940    0.1760 h1        1 MOL      0.040924
    182 H89        -0.9660   -3.2710    0.4330 hn        1 MOL      0.383631
    183 Ca1        -0.4030    0.6480   -1.2850 Ca        1 MOL      1.835672
    184 O25        -3.0120    0.7120   -0.3730 oh        1 MOL     -0.903163
    185 H90        -3.6410    0.0320   -0.6110 ho        1 MOL      0.430871
    186 H91        -3.4590    1.2390    0.2890 ho        1 MOL      0.430871
    187 O26        -2.1580    0.0820   -3.2570 oh        1 MOL     -0.903163
    188 H92        -3.0020    0.5250   -3.3420 ho        1 MOL      0.430871
    189 H93        -1.8040    0.0690   -4.1460 ho        1 MOL      0.430871
    190 O27         1.2900   -0.4200   -3.1990 oh        1 MOL     -0.903163
    191 H94         1.3550    0.1800   -3.9400 ho        1 MOL      0.430871
    192 H95         2.1690   -0.4610   -2.8330 ho        1 MOL      0.430871
@<TRIPOS>BOND
     1    1    2 1   
     2    1    4 1   
     3    1    5 1   
     4    1    6 1   
     5    2    3 2   
     6    2    7 1   
     7    7    8 1   
     8    7   15 1   
     9    8    9 1   
    10    8   11 1   
    11    8   16 1   
    12    9   10 2   
    13    9   19 1   
    14   11   12 1   
    15   11   17 1   
    16   11   18 1   
    17   12   13 1   
    18   12   14 1   
    19   19   20 1   
    20   19   28 1   
    21   20   21 1   
    22   20   23 1   
    23   20   29 1   
    24   21   22 2   
    25   21   41 1   
    26   23   24 1   
    27   23   30 1   
    28   23   31 1   
    29   24   25 1   
    30   24   32 1   
    31   24   33 1   
    32   25   26 1   
    33   25   34 1   
    34   25   35 1   
    35   26   27 1   
    36   26   36 1   
    37   26   37 1   
    38   27   38 1   
    39   27   39 1   
    40   27   40 1   
    41   41   42 1   
    42   41   49 1   
    43   42   43 1   
    44   42   45 1   
    45   42   50 1   
    46   43   44 2   
    47   43   53 1   
    48   45   46 1   
    49   45   51 1   
    50   45   52 1   
    51   46   47 1   
    52   46   48 1   
    53   53   54 1   
    54   53   57 1   
    55   54   55 1   
    56   54   58 1   
    57   54   59 1   
    58   55   56 2   
    59   55   60 1   
    60   60   61 1   
    61   60   68 1   
    62   61   62 1   
    63   61   64 1   
    64   61   69 1   
    65   62   63 2   
    66   62   72 1   
    67   64   65 1   
    68   64   70 1   
    69   64   71 1   
    70   65   66 1   
    71   65   67 1   
    72   72   73 1   
    73   72   76 1   
    74   73   74 1   
    75   73   77 1   
    76   73   78 1   
    77   74   75 2   
    78   74   79 1   
    79   79   80 1   
    80   79   86 1   
    81   80   81 1   
    82   80   83 1   
    83   80   87 1   
    84   81   82 2   
    85   81   93 1   
    86   83   84 1   
    87   83   85 1   
    88   83   88 1   
    89   84   90 1   
    90   84   91 1   
    91   84   92 1   
    92   85   89 1   
    93   93   94 1   
    94   93  101 1   
    95   94   95 1   
    96   94   97 1   
    97   94  102 1   
    98   95   96 2   
    99   95  112 1   
   100   97   98 1   
   101   97   99 1   
   102   97  103 1   
   103   98  100 1   
   104   98  104 1   
   105   98  105 1   
   106   99  106 1   
   107   99  107 1   
   108   99  108 1   
   109  100  109 1   
   110  100  110 1   
   111  100  111 1   
   112  112  113 1   
   113  112  119 1   
   114  113  114 1   
   115  113  116 1   
   116  113  120 1   
   117  114  115 2   
   118  114  126 1   
   119  116  117 1   
   120  116  118 1   
   121  116  121 1   
   122  117  123 1   
   123  117  124 1   
   124  117  125 1   
   125  118  122 1   
   126  126  127 1   
   127  126  133 1   
   128  127  128 1   
   129  127  130 1   
   130  127  134 1   
   131  128  129 2   
   132  128  140 1   
   133  130  131 1   
   134  130  132 1   
   135  130  135 1   
   136  131  137 1   
   137  131  138 1   
   138  131  139 1   
   139  132  136 1   
   140  140  141 1   
   141  140  149 1   
   142  141  142 1   
   143  141  144 1   
   144  141  150 1   
   145  142  143 2   
   146  142  162 1   
   147  144  145 1   
   148  144  151 1   
   149  144  152 1   
   150  145  146 1   
   151  145  153 1   
   152  145  154 1   
   153  146  147 1   
   154  146  155 1   
   155  146  156 1   
   156  147  148 1   
   157  147  157 1   
   158  147  158 1   
   159  148  159 1   
   160  148  160 1   
   161  148  161 1   
   162  162  163 1   
   163  162  171 1   
   164  163  164 1   
   165  163  166 1   
   166  163  172 1   
   167  164  165 2   
   168  164  177 1   
   169  166  167 1   
   170  166  173 1   
   171  166  174 1   
   172  167  168 1   
   173  167  175 1   
   174  167  176 1   
   175  168  169 1   
   176  168  170 1   
   177  177  178 1   
   178  177  182 1   
   179  178  179 1   
   180  178  180 1   
   181  178  181 1   
   182  184  185 1   
   183  184  186 1   
   184  187  188 1   
   185  187  189 1   
   186  190  191 1   
   187  190  192 1   
@<TRIPOS>SUBSTRUCTURE
     1 MOL         1 TEMP              0 ****  ****    0 ROOT
