@<TRIPOS>MOLECULE
MOL
  195   189     1     0     0
SMALL
resp


@<TRIPOS>ATOM
      1 C1         -5.5910   -4.4540    2.5250 c3        1 MOL     -0.185639
      2 C2         -4.5610   -3.6030    1.7980 c         1 MOL      0.867034
      3 O1         -4.1660   -2.5570    2.2690 o         1 MOL     -0.544646
      4 H1         -6.5750   -4.2850    2.0870 hc        1 MOL      0.019424
      5 H2         -5.3260   -5.5070    2.4280 hc        1 MOL      0.019424
      6 H3         -5.6110   -4.1790    3.5800 hc        1 MOL      0.019424
      7 N1         -4.1770   -4.0880    0.6180 n         1 MOL     -1.009950
      8 C3         -3.0680   -3.7070   -0.3360 c3        1 MOL      0.358945
      9 C4         -1.6370   -3.7240    0.3150 c         1 MOL      0.543321
     10 O2         -0.7450   -3.0580   -0.1970 o         1 MOL     -0.520584
     11 C5         -3.3440   -2.2880   -0.8140 c3        1 MOL     -0.683634
     12 C6         -4.7370   -2.0580   -1.3270 c         1 MOL      1.189108
     13 O3         -5.4590   -1.2080   -0.8440 o         1 MOL     -0.883782
     14 O4         -5.2970   -2.8610   -2.1130 o         1 MOL     -0.883782
     15 H4         -4.6090   -4.9500    0.3310 hn        1 MOL      0.359797
     16 H5         -3.1800   -4.4150   -1.1620 h1        1 MOL      0.049893
     17 H6         -2.6880   -1.9840   -1.6290 hc        1 MOL      0.174427
     18 H7         -3.0780   -1.6140   -0.0020 hc        1 MOL      0.174427
     19 N2         -1.4690   -4.4450    1.4570 n         1 MOL     -0.620338
     20 C7         -0.2600   -4.6200    2.2270 c3        1 MOL     -0.110137
     21 C8          0.3760   -5.9540    1.6500 c         1 MOL      0.790529
     22 O5         -0.1730   -7.0330    1.8110 o         1 MOL     -0.635757
     23 C9         -0.6180   -4.5420    3.7030 c3        1 MOL      0.052792
     24 C10        -0.6600   -3.1200    4.2000 c3        1 MOL      0.060771
     25 C11         0.4660   -5.3160    4.5320 c3        1 MOL     -0.266764
     26 C12        -1.1960   -3.0000    5.6380 c3        1 MOL     -0.461757
     27 H8         -2.2070   -5.1130    1.6500 hn        1 MOL      0.364375
     28 H9          0.4180   -3.8000    1.9960 h1        1 MOL      0.115852
     29 H10        -1.5400   -5.0580    3.9810 hc        1 MOL      0.036642
     30 H11        -1.3000   -2.5400    3.5220 hc        1 MOL      0.094818
     31 H12         0.3150   -2.6550    4.1430 hc        1 MOL      0.094818
     32 H13         0.4570   -6.3750    4.2660 hc        1 MOL      0.057393
     33 H14         1.4500   -4.8510    4.4230 hc        1 MOL      0.057393
     34 H15         0.2170   -5.1870    5.5850 hc        1 MOL      0.057393
     35 H16        -1.6220   -1.9940    5.7280 hc        1 MOL      0.111895
     36 H17        -1.9160   -3.8040    5.7950 hc        1 MOL      0.111895
     37 H18        -0.3610   -3.1390    6.3260 hc        1 MOL      0.111895
     38 N3          1.5450   -5.9500    1.0570 n         1 MOL     -0.614864
     39 C13         2.1290   -4.7370    0.3420 c3        1 MOL      0.105464
     40 C14         2.6680   -5.0820   -1.0640 c         1 MOL      0.479088
     41 O6          3.4700   -6.0310   -1.2020 o         1 MOL     -0.496612
     42 C15         3.1350   -4.1060    1.2840 c3        1 MOL     -0.004643
     43 C16         3.8280   -2.9170    0.6480 c         1 MOL      0.586498
     44 O7          5.0500   -3.0540    0.3960 o         1 MOL     -0.632260
     45 O8          3.2390   -1.8580    0.4630 o         1 MOL     -0.632260
     46 H19         2.1330   -6.7690    1.0890 hn        1 MOL      0.322371
     47 H20         1.3130   -4.0290    0.2330 h1        1 MOL     -0.013797
     48 H21         3.8970   -4.8410    1.5360 hc        1 MOL     -0.007487
     49 H22         2.5880   -3.7530    2.1490 hc        1 MOL     -0.007487
     50 N4          2.3290   -4.3050   -2.0840 n         1 MOL     -0.352757
     51 C17         2.8750   -4.3640   -3.4300 c3        1 MOL     -0.249236
     52 C18         4.3190   -3.8890   -3.4660 c         1 MOL      0.574509
     53 O9          5.2080   -4.6960   -3.8150 o         1 MOL     -0.567640
     54 H23         1.7920   -3.4950   -1.8310 hn        1 MOL      0.311721
     55 H24         2.2050   -3.7620   -4.0440 h1        1 MOL      0.114373
     56 H25         2.8160   -5.3960   -3.7880 h1        1 MOL      0.114373
     57 N5          4.6020   -2.6370   -3.0540 n         1 MOL     -0.338747
     58 C19         5.7190   -1.8450   -3.7040 c3        1 MOL      0.027578
     59 C20         6.9380   -1.6430   -2.7850 c         1 MOL      0.428323
     60 O10         7.9460   -1.2660   -3.2920 o         1 MOL     -0.576454
     61 C21         5.1260   -0.5240   -4.2750 c3        1 MOL     -0.344146
     62 C22         4.5120    0.3770   -3.2120 c         1 MOL      0.840432
     63 O11         5.1600    0.9620   -2.3940 o         1 MOL     -0.697369
     64 O12         3.2850    0.5730   -3.2260 o         1 MOL     -0.697369
     65 H26         3.8830   -2.1640   -2.5290 hn        1 MOL      0.252059
     66 H27         6.1230   -2.4290   -4.5330 h1        1 MOL      0.099634
     67 H28         4.3690   -0.8200   -5.0030 hc        1 MOL      0.062957
     68 H29         5.9190    0.0030   -4.8040 hc        1 MOL      0.062957
     69 N6          6.8840   -1.8900   -1.4820 n         1 MOL     -0.111196
     70 C23         8.0710   -1.7020   -0.5710 c3        1 MOL     -0.285686
     71 C24         8.3190   -0.2450   -0.1470 c         1 MOL      0.710427
     72 O13         9.2130   -0.0170    0.6280 o         1 MOL     -0.627314
     73 H30         6.0500   -2.2480   -1.0350 hn        1 MOL      0.158922
     74 H31         8.9680   -2.1690   -0.9810 h1        1 MOL      0.114085
     75 H32         7.7280   -2.2670    0.2980 h1        1 MOL      0.114085
     76 N7          7.5370    0.7310   -0.6580 n         1 MOL     -0.457974
     77 C25         7.6370    2.1880   -0.3130 c3        1 MOL     -0.056900
     78 C26         7.3370    2.6700    1.0740 c         1 MOL      0.351563
     79 O14         7.7780    3.7380    1.5040 o         1 MOL     -0.523796
     80 C27         8.7430    2.9110   -0.9940 c3        1 MOL      0.269528
     81 C28         8.8460    2.5240   -2.5000 c3        1 MOL     -0.248913
     82 C29        10.0160    3.2850   -3.3000 c         1 MOL      0.638280
     83 N8         11.2890    3.2600   -2.7940 n         1 MOL     -0.821314
     84 O15         9.7360    3.8240   -4.3900 o         1 MOL     -0.554831
     85 H33         6.9990    0.5130   -1.4870 hn        1 MOL      0.259070
     86 H34         6.7690    2.5620   -0.8650 h1        1 MOL      0.128583
     87 H35         9.7060    2.7160   -0.5270 hc        1 MOL     -0.040568
     88 H36         8.6870    3.9960   -0.8950 hc        1 MOL     -0.040568
     89 H37         7.8730    2.6280   -2.9720 hc        1 MOL      0.092743
     90 H38         9.2330    1.5050   -2.5140 hc        1 MOL      0.092743
     91 H39        11.6310    2.8810   -1.9240 hn        1 MOL      0.343551
     92 H40        12.0380    3.2460   -3.4790 hn        1 MOL      0.343551
     93 N9          6.6280    1.8330    1.8700 n         1 MOL     -0.073506
     94 C30         6.2530    2.1390    3.2620 c3        1 MOL     -0.175469
     95 C31         4.7340    2.1390    3.5370 c         1 MOL      0.543642
     96 O16         4.3290    2.4070    4.6650 o         1 MOL     -0.598720
     97 C32         6.8410    1.0690    4.2270 c3        1 MOL      0.361247
     98 C33         6.4620   -0.3810    3.8850 c3        1 MOL     -0.367556
     99 C34         8.3440    1.0710    4.3680 c3        1 MOL     -0.367556
    100 H41         6.3600    0.9430    1.4670 hn        1 MOL      0.239723
    101 H42         6.6480    3.1100    3.5550 h1        1 MOL      0.107114
    102 H43         6.5040    1.2680    5.2480 hc        1 MOL     -0.042216
    103 H44         6.8760   -1.0990    4.5950 hc        1 MOL      0.077129
    104 H45         5.3870   -0.5180    3.9710 hc        1 MOL      0.077129
    105 H46         6.7880   -0.5610    2.8670 hc        1 MOL      0.077129
    106 H47         8.8770    0.7370    3.4750 hc        1 MOL      0.077129
    107 H48         8.6320    2.1230    4.4530 hc        1 MOL      0.077129
    108 H49         8.6580    0.4120    5.1670 hc        1 MOL      0.077129
    109 N10         4.0150    1.8030    2.5310 n         1 MOL     -0.471599
    110 C35         2.5390    1.6400    2.6920 c3        1 MOL      0.374124
    111 C36         1.7590    2.1380    1.4110 c         1 MOL      0.453899
    112 O17         2.3440    2.5950    0.4010 o         1 MOL     -0.501405
    113 C37         2.1930    0.1740    2.9760 c3        1 MOL     -0.248313
    114 C38         0.7760   -0.2820    2.7270 c         1 MOL      0.523266
    115 N11         0.6090   -1.1750    1.7490 n         1 MOL     -0.845357
    116 O18        -0.1810    0.1050    3.3380 o         1 MOL     -0.563437
    117 H50         4.5130    1.6150    1.6760 hn        1 MOL      0.201886
    118 H51         2.0980    2.3070    3.4260 h1        1 MOL      0.004964
    119 H52         2.3420   -0.0790    4.0270 hc        1 MOL      0.081421
    120 H53         2.9250   -0.4270    2.4370 hc        1 MOL      0.081421
    121 H54         1.4460   -1.4070    1.2420 hn        1 MOL      0.423713
    122 H55        -0.3180   -1.5680    1.6860 hn        1 MOL      0.423713
    123 N12         0.4120    2.2160    1.4240 n         1 MOL     -0.556848
    124 C39        -0.4390    2.5480    0.2870 c3        1 MOL      0.261711
    125 C40        -1.7360    3.0880    0.9150 c         1 MOL      0.381437
    126 O19        -2.2050    2.5410    1.8600 o         1 MOL     -0.533909
    127 C41        -0.7640    1.3630   -0.6640 c3        1 MOL     -0.008453
    128 C42        -1.5670    1.9060   -1.8190 ca        1 MOL     -0.056743
    129 C43        -0.8550    2.4940   -2.8730 ca        1 MOL     -0.123458
    130 C44        -2.9270    1.6690   -1.8750 ca        1 MOL     -0.123458
    131 C45        -1.5770    2.8290   -4.0470 ca        1 MOL     -0.318715
    132 C46        -3.6390    2.1110   -3.0180 ca        1 MOL     -0.318715
    133 C47        -2.9710    2.6880   -4.1000 ca        1 MOL      0.431417
    134 O20        -3.6150    3.0440   -5.1970 oh        1 MOL     -0.549817
    135 H56        -0.0640    1.8770    2.2490 hn        1 MOL      0.312512
    136 H57         0.1230    3.3600   -0.1660 h1        1 MOL      0.024176
    137 H58        -1.3770    0.6340   -0.1400 hc        1 MOL      0.064097
    138 H59         0.1460    0.9360   -1.0710 hc        1 MOL      0.064097
    139 H60         0.1830    2.7490   -2.8360 ha        1 MOL      0.162758
    140 H61        -3.3760    1.0760   -1.0870 ha        1 MOL      0.162758
    141 H62        -1.1270    3.3170   -4.8950 ha        1 MOL      0.135866
    142 H63        -4.6390    1.7120   -3.0700 ha        1 MOL      0.135866
    143 H64        -3.1320    3.3670   -5.9530 ho        1 MOL      0.384214
    144 N13        -2.2120    4.2440    0.4570 n         1 MOL     -0.368150
    145 C48        -3.4640    4.8490    0.9920 c3        1 MOL      0.130854
    146 C49        -4.4570    4.9260   -0.2200 c         1 MOL      0.528154
    147 O21        -4.2240    5.5900   -1.2000 o         1 MOL     -0.453309
    148 C50        -3.1050    6.1300    1.7130 c3        1 MOL     -0.072056
    149 C51        -2.0560    7.0880    1.1440 c3        1 MOL     -0.229303
    150 C52        -2.7680    8.0750    0.1850 c         1 MOL      0.666023
    151 O22        -2.2820    8.0720   -0.9960 o         1 MOL     -0.659231
    152 O23        -3.7250    8.7640    0.6080 o         1 MOL     -0.659231
    153 H65        -1.7030    4.6840   -0.2950 hn        1 MOL      0.284503
    154 H66        -3.7610    4.1770    1.7950 h1        1 MOL      0.110230
    155 H67        -2.6840    5.7760    2.6510 hc        1 MOL      0.037883
    156 H68        -3.9760    6.6380    2.1370 hc        1 MOL      0.037883
    157 H69        -1.2810    6.5160    0.6180 hc        1 MOL      0.040451
    158 H70        -1.6430    7.6740    1.9680 hc        1 MOL      0.040451
    159 N14        -5.6610    4.3000   -0.1280 n         1 MOL     -0.585714
    160 C53        -6.0810    3.2150    0.7650 c3        1 MOL      0.240080
    161 C54        -6.1120    3.6260    2.2450 c         1 MOL      0.344301
    162 O24        -6.0880    4.8240    2.6550 o         1 MOL     -0.485435
    163 C55        -7.5060    2.6310    0.3650 c3        1 MOL     -0.160801
    164 C56        -7.4760    1.9630   -1.0190 c3        1 MOL      0.072297
    165 C57        -8.7860    1.3280   -1.3480 c         1 MOL      0.625101
    166 O25        -9.8240    2.0360   -1.5750 o         1 MOL     -0.699852
    167 O26        -8.8140    0.0880   -1.4160 o         1 MOL     -0.699852
    168 H71        -6.4150    4.6150   -0.7270 hn        1 MOL      0.331090
    169 H72        -5.3790    2.3890    0.6410 h1        1 MOL     -0.031682
    170 H73        -8.2050    3.4700    0.4100 hc        1 MOL      0.025389
    171 H74        -7.7590    1.8330    1.0540 hc        1 MOL      0.025389
    172 H75        -6.6340    1.2580   -1.0730 hc        1 MOL      0.008719
    173 H76        -7.1950    2.6810   -1.7800 hc        1 MOL      0.008719
    174 N15        -5.8790    2.6220    3.1160 n         1 MOL     -0.317899
    175 C58        -5.6790    2.7070    4.5610 c3        1 MOL     -0.116572
    176 H77        -4.7740    3.2780    4.7680 h1        1 MOL      0.073124
    177 H78        -6.5350    3.2050    5.0180 h1        1 MOL      0.073124
    178 H79        -5.5780    1.7040    4.9730 h1        1 MOL      0.073124
    179 H80        -5.8560    1.7080    2.6960 hn        1 MOL      0.297723
    180 Ca1        -7.7530   -2.3870   -1.3740 Ca        1 MOL      1.727921
    181 O27        -7.2930   -0.9200   -3.4720 oh        1 MOL     -0.855492
    182 H81        -8.1840   -0.5920   -3.6010 ho        1 MOL      0.397125
    183 H82        -6.8190   -0.6460   -4.2520 ho        1 MOL      0.397125
    184 O28        -8.1850   -4.6190   -3.0790 oh        1 MOL     -0.855492
    185 H83        -8.4600   -4.6950   -3.9850 ho        1 MOL      0.397125
    186 H84        -7.5870   -5.3580   -2.9390 ho        1 MOL      0.397125
    187 O29       -10.1340   -3.4560   -0.9170 oh        1 MOL     -0.855492
    188 H85       -10.4870   -4.0510   -0.2650 ho        1 MOL      0.397125
    189 H86       -10.2500   -3.9080   -1.7550 ho        1 MOL      0.397125
    190 O30       -10.0520   -1.8680   -3.2610 oh        1 MOL     -0.855492
    191 H87       -10.2840   -0.9360   -3.2860 ho        1 MOL      0.397125
    192 H88       -10.8530   -2.3220   -3.5260 ho        1 MOL      0.397125
    193 O31        -8.0290   -1.5740    1.1200 oh        1 MOL     -0.855492
    194 H89        -8.5840   -1.7120    1.8780 ho        1 MOL      0.397125
    195 H90        -7.3120   -1.0340    1.4420 ho        1 MOL      0.397125
@<TRIPOS>BOND
     1    1    2 1   
     2    1    4 1   
     3    1    5 1   
     4    1    6 1   
     5    2    3 2   
     6    2    7 1   
     7    7    8 1   
     8    7   15 1   
     9    8    9 1   
    10    8   11 1   
    11    8   16 1   
    12    9   10 2   
    13    9   19 1   
    14   11   12 1   
    15   11   17 1   
    16   11   18 1   
    17   12   13 1   
    18   12   14 1   
    19   19   20 1   
    20   19   27 1   
    21   20   21 1   
    22   20   23 1   
    23   20   28 1   
    24   21   22 2   
    25   21   38 1   
    26   23   24 1   
    27   23   25 1   
    28   23   29 1   
    29   24   26 1   
    30   24   30 1   
    31   24   31 1   
    32   25   32 1   
    33   25   33 1   
    34   25   34 1   
    35   26   35 1   
    36   26   36 1   
    37   26   37 1   
    38   38   39 1   
    39   38   46 1   
    40   39   40 1   
    41   39   42 1   
    42   39   47 1   
    43   40   41 2   
    44   40   50 1   
    45   42   43 1   
    46   42   48 1   
    47   42   49 1   
    48   43   44 1   
    49   43   45 1   
    50   50   51 1   
    51   50   54 1   
    52   51   52 1   
    53   51   55 1   
    54   51   56 1   
    55   52   53 2   
    56   52   57 1   
    57   57   58 1   
    58   57   65 1   
    59   58   59 1   
    60   58   61 1   
    61   58   66 1   
    62   59   60 2   
    63   59   69 1   
    64   61   62 1   
    65   61   67 1   
    66   61   68 1   
    67   62   63 1   
    68   62   64 1   
    69   69   70 1   
    70   69   73 1   
    71   70   71 1   
    72   70   74 1   
    73   70   75 1   
    74   71   72 2   
    75   71   76 1   
    76   76   77 1   
    77   76   85 1   
    78   77   78 1   
    79   77   80 1   
    80   77   86 1   
    81   78   79 2   
    82   78   93 1   
    83   80   81 1   
    84   80   87 1   
    85   80   88 1   
    86   81   82 1   
    87   81   89 1   
    88   81   90 1   
    89   82   83 1   
    90   82   84 2   
    91   83   91 1   
    92   83   92 1   
    93   93   94 1   
    94   93  100 1   
    95   94   95 1   
    96   94   97 1   
    97   94  101 1   
    98   95   96 2   
    99   95  109 1   
   100   97   98 1   
   101   97   99 1   
   102   97  102 1   
   103   98  103 1   
   104   98  104 1   
   105   98  105 1   
   106   99  106 1   
   107   99  107 1   
   108   99  108 1   
   109  109  110 1   
   110  109  117 1   
   111  110  111 1   
   112  110  113 1   
   113  110  118 1   
   114  111  112 2   
   115  111  123 1   
   116  113  114 1   
   117  113  119 1   
   118  113  120 1   
   119  114  115 1   
   120  114  116 2   
   121  115  121 1   
   122  115  122 1   
   123  123  124 1   
   124  123  135 1   
   125  124  125 1   
   126  124  127 1   
   127  124  136 1   
   128  125  126 2   
   129  125  144 1   
   130  127  128 1   
   131  127  137 1   
   132  127  138 1   
   133  128  129 ar  
   134  128  130 ar  
   135  129  131 ar  
   136  129  139 1   
   137  130  132 ar  
   138  130  140 1   
   139  131  133 ar  
   140  131  141 1   
   141  132  133 ar  
   142  132  142 1   
   143  133  134 1   
   144  134  143 1   
   145  144  145 1   
   146  144  153 1   
   147  145  146 1   
   148  145  148 1   
   149  145  154 1   
   150  146  147 2   
   151  146  159 1   
   152  148  149 1   
   153  148  155 1   
   154  148  156 1   
   155  149  150 1   
   156  149  157 1   
   157  149  158 1   
   158  150  151 1   
   159  150  152 1   
   160  159  160 1   
   161  159  168 1   
   162  160  161 1   
   163  160  163 1   
   164  160  169 1   
   165  161  162 2   
   166  161  174 1   
   167  163  164 1   
   168  163  170 1   
   169  163  171 1   
   170  164  165 1   
   171  164  172 1   
   172  164  173 1   
   173  165  166 1   
   174  165  167 1   
   175  174  175 1   
   176  174  179 1   
   177  175  176 1   
   178  175  177 1   
   179  175  178 1   
   180  181  182 1   
   181  181  183 1   
   182  184  185 1   
   183  184  186 1   
   184  187  188 1   
   185  187  189 1   
   186  190  191 1   
   187  190  192 1   
   188  193  194 1   
   189  193  195 1   
@<TRIPOS>SUBSTRUCTURE
     1 MOL         1 TEMP              0 ****  ****    0 ROOT
