@<TRIPOS>MOLECULE
MOL
  188   182     1     0     0
SMALL
resp


@<TRIPOS>ATOM
      1 C1         -3.7610    0.3560   -5.3410 c3        1 MOL     -0.373100
      2 C2         -4.2490    0.4670   -3.8700 c         1 MOL      0.660253
      3 O1         -3.5910   -0.1540   -3.0270 o         1 MOL     -0.532641
      4 H1         -4.2650    1.1080   -5.9490 hc        1 MOL      0.093797
      5 H2         -2.6840    0.5210   -5.3810 hc        1 MOL      0.093797
      6 H3         -3.9920   -0.6360   -5.7280 hc        1 MOL      0.093797
      7 N1         -5.3300    1.2990   -3.6260 n         1 MOL     -0.595114
      8 C3         -6.0100    1.4320   -2.3220 c3        1 MOL      0.041646
      9 C4         -6.2510    0.1480   -1.5190 c         1 MOL      0.467244
     10 O2         -6.2930    0.1530   -0.2850 o         1 MOL     -0.455717
     11 C5         -5.2500    2.5370   -1.5100 c3        1 MOL     -0.237772
     12 C6         -6.0220    3.1120   -0.3100 c         1 MOL      0.847401
     13 O3         -5.4130    3.2490    0.7560 o         1 MOL     -0.726960
     14 O4         -7.1850    3.4970   -0.5110 o         1 MOL     -0.726960
     15 H4         -5.6670    1.8870   -4.3710 hn        1 MOL      0.348332
     16 H5         -7.0160    1.8000   -2.5580 h1        1 MOL      0.062858
     17 H6         -5.1450    3.3780   -2.1940 hc        1 MOL      0.068449
     18 H7         -4.2490    2.1780   -1.2840 hc        1 MOL      0.068449
     19 N2         -6.3810   -1.0170   -2.2120 n         1 MOL     -0.392025
     20 C7         -6.6850   -2.3440   -1.6510 c3        1 MOL      0.012185
     21 C8         -5.5400   -2.8320   -0.7660 c         1 MOL      0.556906
     22 O5         -5.7240   -3.8730   -0.0800 o         1 MOL     -0.631219
     23 C9         -6.8970   -3.2930   -2.8530 c3        1 MOL      0.132114
     24 C10        -7.7330   -4.5730   -2.7690 c3        1 MOL      0.026526
     25 C11        -9.2540   -4.2500   -2.5530 c3        1 MOL     -0.194327
     26 C12       -10.0790   -5.4890   -2.7050 c3        1 MOL      0.010820
     27 N3        -10.3350   -5.7950   -4.1800 n4        1 MOL     -0.477669
     28 H8         -6.4290   -0.9950   -3.2210 hn        1 MOL      0.214434
     29 H9         -7.5980   -2.3540   -1.0610 h1        1 MOL      0.100420
     30 H10        -5.9110   -3.4110   -3.2890 hc        1 MOL     -0.038238
     31 H11        -7.4590   -2.6710   -3.5400 hc        1 MOL     -0.038238
     32 H12        -7.3050   -5.3570   -2.1380 hc        1 MOL      0.024568
     33 H13        -7.5650   -5.0080   -3.7540 hc        1 MOL      0.024568
     34 H14        -9.6250   -3.6030   -3.3490 hc        1 MOL      0.088341
     35 H15        -9.4560   -3.7960   -1.5860 hc        1 MOL      0.088341
     36 H16       -11.0290   -5.3780   -2.1910 hx        1 MOL      0.127240
     37 H17        -9.6250   -6.3460   -2.1940 hx        1 MOL      0.127240
     38 H18        -9.5150   -5.4860   -4.6750 hn        1 MOL      0.335822
     39 H19       -10.5550   -6.7690   -4.3550 hn        1 MOL      0.335822
     40 H20       -11.0950   -5.2570   -4.5760 hn        1 MOL      0.335822
     41 N4         -4.4190   -2.2000   -0.6340 n         1 MOL     -0.408698
     42 C13        -3.2960   -2.5380    0.2140 c3        1 MOL      0.040222
     43 C14        -3.7300   -2.6060    1.6790 c         1 MOL      0.566897
     44 O6         -4.4730   -1.7520    2.2070 o         1 MOL     -0.473163
     45 C15        -2.1110   -1.6040    0.0040 c3        1 MOL      0.136890
     46 C16        -0.8550   -2.0000    0.7710 c         1 MOL      0.446094
     47 O7         -0.8150   -1.9820    2.0050 o         1 MOL     -0.647296
     48 O8          0.1810   -2.3860    0.1360 o         1 MOL     -0.647296
     49 H21        -4.4570   -1.3000   -1.0770 hn        1 MOL      0.255504
     50 H22        -2.9090   -3.4680   -0.1870 h1        1 MOL      0.060556
     51 H23        -2.3520   -0.5860    0.3060 hc        1 MOL      0.023018
     52 H24        -1.8320   -1.5830   -1.0550 hc        1 MOL      0.023018
     53 N5         -3.2020   -3.6210    2.3560 n         1 MOL     -0.393226
     54 C17        -3.4870   -3.8180    3.8190 c3        1 MOL     -0.050711
     55 C18        -3.1880   -2.6640    4.7830 c         1 MOL      0.396363
     56 O9         -3.8410   -2.6190    5.8400 o         1 MOL     -0.547887
     57 H25        -2.7410   -4.3250    1.8030 hn        1 MOL      0.279230
     58 H26        -3.0430   -4.7140    4.2600 h1        1 MOL      0.091400
     59 H27        -4.5510   -4.0280    3.9070 h1        1 MOL      0.091400
     60 N6         -2.2950   -1.7210    4.4780 n         1 MOL     -0.161459
     61 C19        -1.9950   -0.5810    5.2320 c3        1 MOL      0.125426
     62 C20        -2.1930    0.7250    4.3510 c         1 MOL      0.385943
     63 O10        -1.9400    1.7930    4.8920 o         1 MOL     -0.542846
     64 C21        -0.6700   -0.7590    6.0190 c3        1 MOL     -0.207189
     65 C22         0.4670   -0.2460    5.2460 c         1 MOL      0.639305
     66 N7          0.9860    0.9140    5.4960 n         1 MOL     -0.791538
     67 O11         0.8210   -0.8900    4.2610 o         1 MOL     -0.619142
     68 H28        -1.7530   -1.7740    3.6350 hn        1 MOL      0.142937
     69 H29        -2.7360   -0.4520    6.0130 h1        1 MOL      0.080457
     70 H30        -0.4590   -1.8150    6.1890 hc        1 MOL      0.055969
     71 H31        -0.7250   -0.1510    6.9160 hc        1 MOL      0.055969
     72 H32         0.5450    1.5420    6.1620 hn        1 MOL      0.385118
     73 H33         1.7390    1.2830    4.9470 hn        1 MOL      0.385118
     74 N8         -2.6530    0.6410    3.0910 n         1 MOL     -0.084108
     75 C23        -2.9240    1.8630    2.2850 c3        1 MOL     -0.181852
     76 C24        -1.7430    2.6790    1.7540 c         1 MOL      0.584422
     77 O12        -0.6170    2.6770    2.2300 o         1 MOL     -0.530972
     78 H34        -2.8600   -0.2670    2.7030 hn        1 MOL      0.034214
     79 H35        -3.5050    2.4630    2.9890 h1        1 MOL      0.137903
     80 H36        -3.5440    1.4730    1.4770 h1        1 MOL      0.137903
     81 N9         -1.9880    3.3650    0.6420 n         1 MOL     -0.497825
     82 C25        -0.8630    3.9400   -0.1600 c3        1 MOL      0.249395
     83 C26         0.0040    2.8440   -0.7470 c         1 MOL      0.449453
     84 O13        -0.4630    1.7350   -0.9160 o         1 MOL     -0.483328
     85 C27        -1.3900    4.8590   -1.2830 c3        1 MOL     -0.089866
     86 C28        -2.0920    6.1070   -0.8380 ca        1 MOL      0.005892
     87 C29        -3.4560    6.1020   -0.4700 ca        1 MOL     -0.109009
     88 C30        -1.4330    7.3260   -1.0680 ca        1 MOL     -0.109009
     89 C31        -4.0800    7.3440   -0.1220 ca        1 MOL     -0.298771
     90 C32        -2.0730    8.5390   -0.7590 ca        1 MOL     -0.298771
     91 C33        -3.3800    8.5340   -0.2670 ca        1 MOL      0.420667
     92 O14        -3.9540    9.7040   -0.0010 oh        1 MOL     -0.576399
     93 H37        -2.9030    3.3250    0.2330 hn        1 MOL      0.321669
     94 H38        -0.2590    4.5710    0.4970 h1        1 MOL      0.003545
     95 H39        -2.0910    4.2110   -1.7920 hc        1 MOL      0.010750
     96 H40        -0.5880    5.0890   -1.9830 hc        1 MOL      0.010750
     97 H41        -3.9960    5.1710   -0.3370 ha        1 MOL      0.099232
     98 H42        -0.4040    7.2880   -1.3840 ha        1 MOL      0.099232
     99 H43        -5.0890    7.3190    0.2690 ha        1 MOL      0.156581
    100 H44        -1.5100    9.4590   -0.9140 ha        1 MOL      0.156581
    101 H45        -4.8610    9.6460    0.2870 ho        1 MOL      0.423706
    102 N10         1.2910    3.2350   -0.9300 n         1 MOL     -0.610342
    103 C34         2.2700    2.2420   -1.4100 c3        1 MOL     -0.034083
    104 C35         3.3770    2.1580   -0.4460 c         1 MOL      0.386018
    105 O15         3.8140    1.0480   -0.1360 o         1 MOL     -0.343769
    106 C36         2.6650    2.4480   -2.8830 c3        1 MOL      0.142810
    107 C37         1.4290    2.5710   -3.7750 c3        1 MOL     -0.158985
    108 C38         3.5600    1.2750   -3.3090 c3        1 MOL     -0.435458
    109 C39         1.7260    2.4800   -5.2300 c3        1 MOL     -0.204241
    110 H46         1.6130    4.1580   -0.7200 hn        1 MOL      0.356451
    111 H47         1.8490    1.2350   -1.3780 h1        1 MOL      0.128510
    112 H48         3.2920    3.3140   -3.0990 hc        1 MOL     -0.019790
    113 H49         0.8920    3.4950   -3.5780 hc        1 MOL      0.124066
    114 H50         0.7700    1.7450   -3.4950 hc        1 MOL      0.124066
    115 H51         4.3240    1.0640   -2.5580 hc        1 MOL      0.111891
    116 H52         2.9030    0.4060   -3.3250 hc        1 MOL      0.111891
    117 H53         4.0610    1.4630   -4.2590 hc        1 MOL      0.111891
    118 H54         0.8400    2.3780   -5.8640 hc        1 MOL      0.064041
    119 H55         2.2760    3.3540   -5.5730 hc        1 MOL      0.064041
    120 H56         2.2870    1.6150   -5.6010 hc        1 MOL      0.064041
    121 N11         3.8320    3.3140   -0.0030 n         1 MOL     -0.285210
    122 C40         5.0380    3.5530    0.8240 c3        1 MOL      0.161089
    123 C41         6.2270    2.8450    0.3090 c         1 MOL      0.071827
    124 O16         7.0420    2.3500    1.0830 o         1 MOL     -0.455775
    125 C42         5.4090    5.0400    0.9670 c3        1 MOL      0.224667
    126 O17         4.2380    5.8870    1.1690 oh        1 MOL     -0.612275
    127 H57         3.2540    4.1150   -0.2240 hn        1 MOL      0.168508
    128 H58         4.8970    3.1660    1.8360 h1        1 MOL      0.079458
    129 H59         5.9870    5.5020    0.1740 h1        1 MOL      0.029767
    130 H60         6.1380    5.1290    1.7730 h1        1 MOL      0.029767
    131 H61         4.3550    6.6910    0.6610 ho        1 MOL      0.404132
    132 N12         6.4150    2.7720   -0.9920 n         1 MOL     -0.009157
    133 C43         7.6040    2.1090   -1.5580 c3        1 MOL     -0.019956
    134 C44         7.8450    0.6040   -1.1560 c         1 MOL      0.444513
    135 O18         8.8550   -0.0480   -1.6100 o         1 MOL     -0.536231
    136 C45         8.7580    3.0470   -1.2070 c3        1 MOL     -0.376794
    137 H62         5.9400    3.4420   -1.5800 hn        1 MOL      0.159532
    138 H63         7.4560    2.0210   -2.6360 h1        1 MOL      0.100029
    139 H64         9.6920    2.8370   -1.7310 hc        1 MOL      0.117841
    140 H65         8.6250    4.0690   -1.5600 hc        1 MOL      0.117841
    141 H66         9.1360    3.0360   -0.1850 hc        1 MOL      0.117841
    142 N13         6.8530    0.0120   -0.5110 n         1 MOL     -0.168541
    143 C46         6.9050   -1.4060   -0.1060 c3        1 MOL      0.045389
    144 C47         6.2860   -2.3870   -1.0620 c         1 MOL      0.396026
    145 O19         5.3390   -2.0870   -1.8220 o         1 MOL     -0.459520
    146 C48         6.2120   -1.4780    1.2650 c3        1 MOL      0.011922
    147 H67         6.0490    0.4930   -0.1470 hn        1 MOL      0.140700
    148 H68         7.9500   -1.6030    0.0920 h1        1 MOL      0.043409
    149 H69         6.3020   -2.4820    1.6790 hc        1 MOL      0.011703
    150 H70         6.7810   -0.8850    1.9780 hc        1 MOL      0.011703
    151 H71         5.1880   -1.1210    1.2640 hc        1 MOL      0.011703
    152 N14         6.7010   -3.6260   -0.8780 n         1 MOL     -0.600777
    153 C49         6.2360   -4.7760   -1.6900 c3        1 MOL     -0.100746
    154 C50         6.5780   -4.6620   -3.1670 c         1 MOL      0.387346
    155 O20         6.2480   -5.5390   -3.9040 o         1 MOL     -0.494301
    156 C51         4.7190   -5.1230   -1.4590 c3        1 MOL      0.327238
    157 C52         4.2230   -5.2960   -0.0070 c3        1 MOL     -0.180163
    158 C53         2.7180   -5.1530    0.0890 c         1 MOL      0.641413
    159 O21         2.1850   -4.3540    0.8880 o         1 MOL     -0.661498
    160 O22         1.9930   -5.9280   -0.6050 o         1 MOL     -0.661498
    161 H72         7.3920   -3.8240   -0.1590 hn        1 MOL      0.360852
    162 H73         6.7630   -5.6050   -1.2220 h1        1 MOL      0.105323
    163 H74         4.5730   -6.0930   -1.9460 hc        1 MOL     -0.024035
    164 H75         4.0820   -4.4420   -2.0240 hc        1 MOL     -0.024035
    165 H76         4.7290   -4.5520    0.6200 hc        1 MOL     -0.007120
    166 H77         4.5850   -6.2470    0.3850 hc        1 MOL     -0.007120
    167 N15         7.2870   -3.6410   -3.5830 n         1 MOL     -0.170385
    168 C54         7.7810   -3.2830   -4.8560 c3        1 MOL     -0.079940
    169 H78         7.1570   -2.4960   -5.2790 h1        1 MOL      0.058778
    170 H79         8.8050   -2.9220   -4.7610 h1        1 MOL      0.058778
    171 H80         7.7610   -4.1540   -5.5120 h1        1 MOL      0.058778
    172 H81         7.4980   -2.9110   -2.9070 hn        1 MOL      0.220233
    173 Ca1         1.7930   -2.0260    2.1400 Ca        1 MOL      1.786928
    174 O23         3.5060   -0.1960    3.1330 oh        1 MOL     -0.844744
    175 O24         0.6890   -3.8450    3.8390 oh        1 MOL     -0.844744
    176 H82         3.2240    0.6980    3.2830 ho        1 MOL      0.408513
    177 H83         1.0800   -4.6060    4.2540 ho        1 MOL      0.408513
    178 H84         4.4000   -0.2320    3.4840 ho        1 MOL      0.408513
    179 H85         0.1210   -3.4770    4.5200 ho        1 MOL      0.408513
    180 O25         1.1400    0.5270    1.6150 oh        1 MOL     -0.844744
    181 H86         0.9510    1.2710    2.1830 ho        1 MOL      0.408513
    182 H87         0.6810    0.7350    0.7940 ho        1 MOL      0.408513
    183 O26         2.8640   -1.5980   -0.2810 oh        1 MOL     -0.844744
    184 H88         3.1340   -0.7480   -0.6440 ho        1 MOL      0.408513
    185 H89         2.9890   -2.2150   -0.9990 ho        1 MOL      0.408513
    186 O27         3.7380   -3.4880    3.3310 oh        1 MOL     -0.844744
    187 H90         4.0280   -4.2500    2.8260 ho        1 MOL      0.408513
    188 H91         4.2210   -3.5530    4.1570 ho        1 MOL      0.408513
@<TRIPOS>BOND
     1    1    2 1   
     2    1    4 1   
     3    1    5 1   
     4    1    6 1   
     5    2    3 2   
     6    2    7 1   
     7    7    8 1   
     8    7   15 1   
     9    8    9 1   
    10    8   11 1   
    11    8   16 1   
    12    9   10 2   
    13    9   19 1   
    14   11   12 1   
    15   11   17 1   
    16   11   18 1   
    17   12   13 1   
    18   12   14 1   
    19   19   20 1   
    20   19   28 1   
    21   20   21 1   
    22   20   23 1   
    23   20   29 1   
    24   21   22 2   
    25   21   41 1   
    26   23   24 1   
    27   23   30 1   
    28   23   31 1   
    29   24   25 1   
    30   24   32 1   
    31   24   33 1   
    32   25   26 1   
    33   25   34 1   
    34   25   35 1   
    35   26   27 1   
    36   26   36 1   
    37   26   37 1   
    38   27   38 1   
    39   27   39 1   
    40   27   40 1   
    41   41   42 1   
    42   41   49 1   
    43   42   43 1   
    44   42   45 1   
    45   42   50 1   
    46   43   44 2   
    47   43   53 1   
    48   45   46 1   
    49   45   51 1   
    50   45   52 1   
    51   46   47 1   
    52   46   48 1   
    53   53   54 1   
    54   53   57 1   
    55   54   55 1   
    56   54   58 1   
    57   54   59 1   
    58   55   56 2   
    59   55   60 1   
    60   60   61 1   
    61   60   68 1   
    62   61   62 1   
    63   61   64 1   
    64   61   69 1   
    65   62   63 2   
    66   62   74 1   
    67   64   65 1   
    68   64   70 1   
    69   64   71 1   
    70   65   66 1   
    71   65   67 2   
    72   66   72 1   
    73   66   73 1   
    74   74   75 1   
    75   74   78 1   
    76   75   76 1   
    77   75   79 1   
    78   75   80 1   
    79   76   77 2   
    80   76   81 1   
    81   81   82 1   
    82   81   93 1   
    83   82   83 1   
    84   82   85 1   
    85   82   94 1   
    86   83   84 2   
    87   83  102 1   
    88   85   86 1   
    89   85   95 1   
    90   85   96 1   
    91   86   87 ar  
    92   86   88 ar  
    93   87   89 ar  
    94   87   97 1   
    95   88   90 ar  
    96   88   98 1   
    97   89   91 ar  
    98   89   99 1   
    99   90   91 ar  
   100   90  100 1   
   101   91   92 1   
   102   92  101 1   
   103  102  103 1   
   104  102  110 1   
   105  103  104 1   
   106  103  106 1   
   107  103  111 1   
   108  104  105 2   
   109  104  121 1   
   110  106  107 1   
   111  106  108 1   
   112  106  112 1   
   113  107  109 1   
   114  107  113 1   
   115  107  114 1   
   116  108  115 1   
   117  108  116 1   
   118  108  117 1   
   119  109  118 1   
   120  109  119 1   
   121  109  120 1   
   122  121  122 1   
   123  121  127 1   
   124  122  123 1   
   125  122  125 1   
   126  122  128 1   
   127  123  124 2   
   128  123  132 1   
   129  125  126 1   
   130  125  129 1   
   131  125  130 1   
   132  126  131 1   
   133  132  133 1   
   134  132  137 1   
   135  133  134 1   
   136  133  136 1   
   137  133  138 1   
   138  134  135 2   
   139  134  142 1   
   140  136  139 1   
   141  136  140 1   
   142  136  141 1   
   143  142  143 1   
   144  142  147 1   
   145  143  144 1   
   146  143  146 1   
   147  143  148 1   
   148  144  145 2   
   149  144  152 1   
   150  146  149 1   
   151  146  150 1   
   152  146  151 1   
   153  152  153 1   
   154  152  161 1   
   155  153  154 1   
   156  153  156 1   
   157  153  162 1   
   158  154  155 2   
   159  154  167 1   
   160  156  157 1   
   161  156  163 1   
   162  156  164 1   
   163  157  158 1   
   164  157  165 1   
   165  157  166 1   
   166  158  159 1   
   167  158  160 1   
   168  167  168 1   
   169  167  172 1   
   170  168  169 1   
   171  168  170 1   
   172  168  171 1   
   173  174  176 1   
   174  174  178 1   
   175  175  177 1   
   176  175  179 1   
   177  180  181 1   
   178  180  182 1   
   179  183  184 1   
   180  183  185 1   
   181  186  187 1   
   182  186  188 1   
@<TRIPOS>SUBSTRUCTURE
     1 MOL         1 TEMP              0 ****  ****    0 ROOT
