@<TRIPOS>MOLECULE
MOL
  201   193     1     0     0
SMALL
resp


@<TRIPOS>ATOM
      1 C1          0.6880    4.6040    2.8860 c3        1 MOL     -0.246585
      2 C2         -0.4110    4.6560    1.6730 c         1 MOL      0.415088
      3 O1         -1.3860    3.8820    1.6690 o         1 MOL     -0.489771
      4 H1          0.8050    3.5750    3.2260 hc        1 MOL      0.050248
      5 H2          1.6460    4.9770    2.5250 hc        1 MOL      0.050248
      6 H3          0.3450    5.2230    3.7150 hc        1 MOL      0.050248
      7 N1         -0.1870    5.5060    0.6860 n         1 MOL     -0.324276
      8 C3         -0.9330    5.6330   -0.5360 c3        1 MOL      0.039819
      9 C4         -2.4600    5.7590   -0.4320 c         1 MOL      0.651794
     10 O2         -3.2030    5.1250   -1.1450 o         1 MOL     -0.508072
     11 C5         -0.5550    4.4200   -1.3970 c3        1 MOL     -0.197098
     12 C6         -0.4400    4.7140   -2.8850 c         1 MOL      0.684158
     13 O3         -0.7390    3.7740   -3.6380 o         1 MOL     -0.644974
     14 O4          0.0550    5.7610   -3.3250 o         1 MOL     -0.644974
     15 H4          0.6300    6.0770    0.8400 hn        1 MOL      0.250225
     16 H5         -0.5610    6.4670   -1.1220 h1        1 MOL     -0.007865
     17 H6         -1.2550    3.5870   -1.2510 hc        1 MOL      0.068079
     18 H7          0.3900    4.0180   -1.0380 hc        1 MOL      0.068079
     19 N2         -2.9520    6.5220    0.5340 n         1 MOL     -0.472813
     20 C7         -4.3030    6.3360    1.0830 c3        1 MOL     -0.158175
     21 C8         -5.4960    6.8280    0.1230 c         1 MOL      0.520920
     22 O5         -5.3210    7.9310   -0.4580 o         1 MOL     -0.579151
     23 C9         -4.5220    6.8610    2.4770 c3        1 MOL      0.089630
     24 C10        -4.3850    8.3890    2.5110 c3        1 MOL      0.037526
     25 C11        -3.4960    6.0790    3.3990 c3        1 MOL     -0.141641
     26 C12        -4.6120    8.9640    3.8830 c3        1 MOL     -0.106313
     27 H8         -2.2840    7.0710    1.0670 hn        1 MOL      0.233570
     28 H9         -4.5530    5.2760    1.1670 h1        1 MOL      0.148590
     29 H10        -5.5550    6.6530    2.7300 hc        1 MOL      0.039588
     30 H11        -5.0980    8.8860    1.8520 hc        1 MOL      0.025306
     31 H12        -3.3900    8.7170    2.2200 hc        1 MOL      0.025306
     32 H13        -2.5050    6.5320    3.2690 hc        1 MOL      0.040239
     33 H14        -3.7320    6.2090    4.4540 hc        1 MOL      0.040239
     34 H15        -3.5320    5.0180    3.1260 hc        1 MOL      0.040239
     35 H16        -5.5570    8.7900    4.3920 hc        1 MOL      0.000761
     36 H17        -3.9050    8.4560    4.5370 hc        1 MOL      0.000761
     37 H18        -4.3480   10.0240    3.8380 hc        1 MOL      0.000761
     38 N3         -6.5610    6.0500   -0.0430 n         1 MOL     -0.346073
     39 C13        -6.9530    4.7670    0.6170 c3        1 MOL     -0.089884
     40 C14        -6.4130    3.5350   -0.1090 c         1 MOL      0.629981
     41 O6         -6.2530    2.5510    0.5250 o         1 MOL     -0.552985
     42 C15        -8.4620    4.7240    0.8710 c3        1 MOL     -0.088944
     43 C16        -9.3940    4.6300   -0.4000 c         1 MOL      0.700912
     44 O7        -10.5030    4.1400   -0.2620 o         1 MOL     -0.668324
     45 O8         -8.9600    5.0950   -1.5020 o         1 MOL     -0.668324
     46 H19        -7.2250    6.5270   -0.6290 hn        1 MOL      0.231786
     47 H20        -6.4880    4.7930    1.6090 h1        1 MOL      0.056506
     48 H21        -8.7900    5.6260    1.3750 hc        1 MOL      0.012638
     49 H22        -8.6360    3.9430    1.6020 hc        1 MOL      0.012638
     50 N4         -5.9900    3.6890   -1.3710 n         1 MOL     -0.409687
     51 C17        -5.3310    2.6110   -2.1250 c3        1 MOL     -0.198960
     52 C18        -6.0980    1.3320   -2.5060 c         1 MOL      0.597217
     53 O9         -7.3040    1.2980   -2.4590 o         1 MOL     -0.542958
     54 H23        -6.1210    4.5370   -1.9030 hn        1 MOL      0.323996
     55 H24        -4.3140    2.4370   -1.7590 h1        1 MOL      0.138150
     56 H25        -5.1990    2.9810   -3.1440 h1        1 MOL      0.138150
     57 N5         -5.4660    0.2720   -2.9130 n         1 MOL     -0.440927
     58 C19        -6.1050   -1.0300   -3.3570 c3        1 MOL     -0.004030
     59 C20        -7.0200   -1.7560   -2.3050 c         1 MOL      0.348500
     60 O10        -7.8780   -2.6250   -2.5860 o         1 MOL     -0.524172
     61 C21        -5.1330   -2.0990   -3.9050 c3        1 MOL     -0.021206
     62 C22        -3.9750   -2.4110   -2.9200 c         1 MOL      0.717154
     63 O11        -3.0050   -1.6640   -2.9280 o         1 MOL     -0.675665
     64 O12        -4.0960   -3.4130   -2.2440 o         1 MOL     -0.675665
     65 H26        -4.4610    0.2710   -2.9270 hn        1 MOL      0.247214
     66 H27        -6.7760   -0.9070   -4.2060 h1        1 MOL      0.098144
     67 H28        -4.7400   -1.7540   -4.8650 hc        1 MOL     -0.025339
     68 H29        -5.6520   -3.0410   -4.0700 hc        1 MOL     -0.025339
     69 N6         -6.8280   -1.4840   -0.9850 n         1 MOL     -0.006325
     70 C23        -7.5780   -2.1170    0.0910 c3        1 MOL     -0.369836
     71 C24        -7.2480   -3.5890    0.4190 c         1 MOL      0.424323
     72 O13        -7.7770   -4.1040    1.4080 o         1 MOL     -0.572019
     73 H30        -6.2840   -0.6520   -0.7660 hn        1 MOL      0.173067
     74 H31        -8.6530   -2.0070   -0.1190 h1        1 MOL      0.166578
     75 H32        -7.4010   -1.5280    0.9940 h1        1 MOL      0.166578
     76 N7         -6.4130   -4.2700   -0.3860 n         1 MOL      0.236763
     77 C25        -5.9760   -5.6480   -0.2120 c3        1 MOL     -0.045376
     78 C26        -5.1700   -5.9320    1.0600 c         1 MOL      0.286852
     79 O14        -4.9730   -7.1010    1.4670 o         1 MOL     -0.492999
     80 C27        -7.1570   -6.6310   -0.5530 c3        1 MOL      0.031136
     81 C28        -7.6950   -6.4140   -1.9960 c3        1 MOL     -0.140418
     82 C29        -6.6420   -6.5950   -3.1140 c         1 MOL      0.555388
     83 N8         -6.0060   -5.4160   -3.4830 n         1 MOL     -0.759300
     84 O15        -6.3960   -7.6820   -3.6100 o         1 MOL     -0.555425
     85 H33        -5.8470   -3.6830   -0.9820 hn        1 MOL     -0.199228
     86 H34        -5.2450   -5.8840   -0.9770 h1        1 MOL      0.162444
     87 H35        -7.9890   -6.4240    0.1180 hc        1 MOL      0.020381
     88 H36        -6.8100   -7.6570   -0.4450 hc        1 MOL      0.020381
     89 H37        -8.0810   -5.3940   -2.0400 hc        1 MOL      0.029414
     90 H38        -8.4980   -7.1410   -2.1370 hc        1 MOL      0.029414
     91 H39        -6.1180   -4.5330   -2.9930 hn        1 MOL      0.364275
     92 H40        -5.5090   -5.3770   -4.3640 hn        1 MOL      0.364275
     93 N9         -4.6690   -4.8800    1.7470 n         1 MOL     -0.196612
     94 C30        -3.8470   -5.0190    2.9720 c3        1 MOL     -0.028748
     95 C31        -2.4080   -4.5020    2.9610 c         1 MOL      0.559208
     96 O16        -1.6310   -4.6940    3.9150 o         1 MOL     -0.580176
     97 C32        -4.5630   -4.3180    4.2150 c3        1 MOL      0.340046
     98 C33        -4.8260   -2.8540    4.0300 c3        1 MOL     -0.355656
     99 C34        -5.9390   -4.9580    4.4130 c3        1 MOL     -0.355656
    100 H41        -4.8210   -3.9330    1.4360 hn        1 MOL      0.267301
    101 H42        -3.8180   -6.0610    3.2860 h1        1 MOL      0.076347
    102 H43        -3.9490   -4.4960    5.1050 hc        1 MOL     -0.043392
    103 H44        -3.8940   -2.3030    3.9000 hc        1 MOL      0.072269
    104 H45        -5.3220   -2.6100    3.0920 hc        1 MOL      0.072269
    105 H46        -5.3720   -2.4810    4.8880 hc        1 MOL      0.072269
    106 H47        -6.3990   -4.5900    5.3240 hc        1 MOL      0.072269
    107 H48        -6.5690   -4.8430    3.5250 hc        1 MOL      0.072269
    108 H49        -5.6470   -6.0130    4.4630 hc        1 MOL      0.072269
    109 N10        -1.9770   -3.7960    1.8960 n         1 MOL     -0.543813
    110 C35        -0.8910   -2.8400    2.0170 c3        1 MOL      0.319312
    111 C36        -0.1050   -3.0090    0.6660 c         1 MOL      0.566561
    112 O17        -0.6320   -3.3790   -0.3860 o         1 MOL     -0.506682
    113 C37        -1.4230   -1.3870    2.1140 c3        1 MOL     -0.182433
    114 C38        -0.6700   -0.4960    2.9900 c         1 MOL      0.689655
    115 N11        -1.2200    0.4790    3.5530 n         1 MOL     -0.767694
    116 O18         0.5160   -0.8000    3.2820 o         1 MOL     -0.623895
    117 H50        -2.6450   -3.5550    1.1730 hn        1 MOL      0.222730
    118 H51        -0.2120   -2.9900    2.8580 h1        1 MOL      0.037586
    119 H52        -2.4490   -1.4840    2.4470 hc        1 MOL      0.066038
    120 H53        -1.4080   -0.9130    1.1190 hc        1 MOL      0.066038
    121 H54        -2.1060    0.8460    3.2110 hn        1 MOL      0.365544
    122 H55        -0.7340    1.0030    4.2650 hn        1 MOL      0.365544
    123 N12         1.1800   -2.7000    0.6900 n         1 MOL     -0.661999
    124 C39         2.1290   -2.9070   -0.4640 c3        1 MOL      0.175478
    125 C40         3.6000   -3.2240    0.0180 c         1 MOL      0.829766
    126 O19         4.1120   -2.6960    0.9770 o         1 MOL     -0.573679
    127 C41         2.1240   -1.6720   -1.4630 c3        1 MOL     -0.126140
    128 C42         2.7350   -0.4130   -0.8700 ca        1 MOL     -0.011382
    129 C43         1.9780    0.4340    0.0130 ca        1 MOL     -0.107115
    130 C44         4.0870   -0.2000   -0.9980 ca        1 MOL     -0.107115
    131 C45         2.6120    1.5280    0.6630 ca        1 MOL     -0.219499
    132 C46         4.7110    0.9030   -0.3910 ca        1 MOL     -0.219499
    133 C47         3.9510    1.7580    0.4010 ca        1 MOL      0.266051
    134 O20         4.6640    2.6440    1.1270 oh        1 MOL     -0.504930
    135 H56         1.5180   -2.2740    1.5410 hn        1 MOL      0.293118
    136 H57         1.8260   -3.7120   -1.1380 h1        1 MOL      0.057425
    137 H58         1.1090   -1.4500   -1.8200 hc        1 MOL      0.085965
    138 H59         2.6130   -2.0350   -2.3660 hc        1 MOL      0.085965
    139 H60         0.9630    0.1900    0.3020 ha        1 MOL      0.111407
    140 H61         4.6540   -0.8750   -1.6150 ha        1 MOL      0.111407
    141 H62         2.0640    2.0580    1.4350 ha        1 MOL      0.171844
    142 H63         5.7710    1.0830   -0.5240 ha        1 MOL      0.171844
    143 H64         4.1800    3.0890    1.8260 ho        1 MOL      0.359250
    144 N13         4.1710   -4.1620   -0.7110 n         1 MOL     -0.908127
    145 C48         5.4470   -4.8620   -0.4330 c3        1 MOL      0.386964
    146 C49         6.5610   -4.6380   -1.5070 c         1 MOL      0.625524
    147 O21         6.7160   -5.4280   -2.4490 o         1 MOL     -0.553473
    148 C50         5.2290   -6.3260   -0.2100 c3        1 MOL     -0.056011
    149 C51         6.2840   -7.0160    0.7080 c3        1 MOL     -0.150334
    150 C52         6.2510   -8.5380    0.7720 c         1 MOL      0.671389
    151 O22         5.7500   -9.1740    1.7360 o         1 MOL     -0.639863
    152 O23         6.7520   -9.1780   -0.1640 o         1 MOL     -0.639863
    153 H65         3.7630   -4.3510   -1.6170 hn        1 MOL      0.370241
    154 H66         5.8510   -4.4850    0.5140 h1        1 MOL      0.027107
    155 H67         5.1950   -6.8760   -1.1540 hc        1 MOL      0.029463
    156 H68         4.2980   -6.3510    0.3430 hc        1 MOL      0.029463
    157 H69         6.2210   -6.5920    1.7070 hc        1 MOL      0.022034
    158 H70         7.2850   -6.7430    0.3730 hc        1 MOL      0.022034
    159 N14         7.3300   -3.5190   -1.4570 n         1 MOL     -0.697702
    160 C53         7.4030   -2.5320   -0.4110 c3        1 MOL     -0.024879
    161 C54         8.3270   -2.9680    0.8030 c         1 MOL      0.543225
    162 O24         9.3470   -3.5760    0.5610 o         1 MOL     -0.487089
    163 C55         7.7770   -1.1170   -0.9290 c3        1 MOL      0.545656
    164 C56         9.2800   -0.7880   -1.1790 c3        1 MOL     -0.962007
    165 C57         9.5740    0.7530   -0.8580 c         1 MOL      0.997406
    166 O25         9.1300    1.3760    0.1360 o         1 MOL     -0.715821
    167 O26        10.2880    1.3420   -1.6350 o         1 MOL     -0.715821
    168 H71         8.0360   -3.4680   -2.1750 hn        1 MOL      0.354804
    169 H72         6.3710   -2.4840   -0.0580 h1        1 MOL     -0.006857
    170 H73         7.4200   -0.3930   -0.1950 hc        1 MOL     -0.091723
    171 H74         7.2320   -0.9650   -1.8540 hc        1 MOL     -0.091723
    172 H75         9.5680   -1.0250   -2.2070 hc        1 MOL      0.228244
    173 H76         9.9430   -1.4880   -0.6680 hc        1 MOL      0.228244
    174 N15         7.8930   -2.6740    2.0730 n         1 MOL     -0.406189
    175 C58         8.4230   -3.0720    3.3990 c3        1 MOL     -0.413033
    176 H77         8.4800   -4.1590    3.4560 h1        1 MOL      0.164305
    177 H78         9.4190   -2.6500    3.5350 h1        1 MOL      0.164305
    178 H79         7.7620   -2.7020    4.1820 h1        1 MOL      0.164305
    179 H80         6.9670   -2.2670    2.1460 hn        1 MOL      0.314783
    180 Ca1         9.3880    3.9400   -0.7260 Ca        1 MOL      1.720132
    181 O27        11.8400    5.0790   -0.8220 oh        1 MOL     -0.800402
    182 H81        12.0560    5.6040   -1.5930 ho        1 MOL      0.352872
    183 H82        12.6680    5.0120   -0.3420 ho        1 MOL      0.352872
    184 O28         9.5320    6.1350    0.8100 oh        1 MOL     -0.800402
    185 H83        10.0360    6.9350    0.7040 ho        1 MOL      0.352872
    186 H84         8.7780    6.3840    1.3440 ho        1 MOL      0.352872
    187 O29        10.3040    4.4020   -3.2550 oh        1 MOL     -0.800402
    188 H85        10.3360    5.1250   -3.8830 ho        1 MOL      0.352872
    189 H86        10.4750    3.6220   -3.7780 ho        1 MOL      0.352872
    190 O30         7.4850    5.7670   -1.0580 oh        1 MOL     -0.800402
    191 H87         7.4560    6.6550   -0.7080 ho        1 MOL      0.352872
    192 H88         6.6190    5.6410   -1.4570 ho        1 MOL      0.352872
    193 O31         7.3570    3.9240    1.2840 oh        1 MOL     -0.800402
    194 H89         6.4660    3.7850    0.9680 ho        1 MOL      0.352872
    195 H90         7.3180    4.7530    1.7560 ho        1 MOL      0.352872
    196 O32        10.9920    3.0710    1.1680 oh        1 MOL     -0.800402
    197 H91        10.8340    3.4510    2.0410 ho        1 MOL      0.352872
    198 H92        10.5900    2.2120    1.2090 ho        1 MOL      0.352872
    199 O33         7.5690    2.9220   -2.4300 oh        1 MOL     -0.800402
    200 H93         6.9690    3.5410   -2.8460 ho        1 MOL      0.352872
    201 H94         7.5700    2.1690   -3.0190 ho        1 MOL      0.352872
@<TRIPOS>BOND
     1    1    2 1   
     2    1    4 1   
     3    1    5 1   
     4    1    6 1   
     5    2    3 2   
     6    2    7 1   
     7    7    8 1   
     8    7   15 1   
     9    8    9 1   
    10    8   11 1   
    11    8   16 1   
    12    9   10 2   
    13    9   19 1   
    14   11   12 1   
    15   11   17 1   
    16   11   18 1   
    17   12   13 1   
    18   12   14 1   
    19   19   20 1   
    20   19   27 1   
    21   20   21 1   
    22   20   23 1   
    23   20   28 1   
    24   21   22 2   
    25   21   38 1   
    26   23   24 1   
    27   23   25 1   
    28   23   29 1   
    29   24   26 1   
    30   24   30 1   
    31   24   31 1   
    32   25   32 1   
    33   25   33 1   
    34   25   34 1   
    35   26   35 1   
    36   26   36 1   
    37   26   37 1   
    38   38   39 1   
    39   38   46 1   
    40   39   40 1   
    41   39   42 1   
    42   39   47 1   
    43   40   41 2   
    44   40   50 1   
    45   42   43 1   
    46   42   48 1   
    47   42   49 1   
    48   43   44 1   
    49   43   45 1   
    50   50   51 1   
    51   50   54 1   
    52   51   52 1   
    53   51   55 1   
    54   51   56 1   
    55   52   53 2   
    56   52   57 1   
    57   57   58 1   
    58   57   65 1   
    59   58   59 1   
    60   58   61 1   
    61   58   66 1   
    62   59   60 2   
    63   59   69 1   
    64   61   62 1   
    65   61   67 1   
    66   61   68 1   
    67   62   63 1   
    68   62   64 1   
    69   69   70 1   
    70   69   73 1   
    71   70   71 1   
    72   70   74 1   
    73   70   75 1   
    74   71   72 2   
    75   71   76 1   
    76   76   77 1   
    77   76   85 1   
    78   77   78 1   
    79   77   80 1   
    80   77   86 1   
    81   78   79 2   
    82   78   93 1   
    83   80   81 1   
    84   80   87 1   
    85   80   88 1   
    86   81   82 1   
    87   81   89 1   
    88   81   90 1   
    89   82   83 1   
    90   82   84 2   
    91   83   91 1   
    92   83   92 1   
    93   93   94 1   
    94   93  100 1   
    95   94   95 1   
    96   94   97 1   
    97   94  101 1   
    98   95   96 2   
    99   95  109 1   
   100   97   98 1   
   101   97   99 1   
   102   97  102 1   
   103   98  103 1   
   104   98  104 1   
   105   98  105 1   
   106   99  106 1   
   107   99  107 1   
   108   99  108 1   
   109  109  110 1   
   110  109  117 1   
   111  110  111 1   
   112  110  113 1   
   113  110  118 1   
   114  111  112 2   
   115  111  123 1   
   116  113  114 1   
   117  113  119 1   
   118  113  120 1   
   119  114  115 1   
   120  114  116 2   
   121  115  121 1   
   122  115  122 1   
   123  123  124 1   
   124  123  135 1   
   125  124  125 1   
   126  124  127 1   
   127  124  136 1   
   128  125  126 2   
   129  125  144 1   
   130  127  128 1   
   131  127  137 1   
   132  127  138 1   
   133  128  129 ar  
   134  128  130 ar  
   135  129  131 ar  
   136  129  139 1   
   137  130  132 ar  
   138  130  140 1   
   139  131  133 ar  
   140  131  141 1   
   141  132  133 ar  
   142  132  142 1   
   143  133  134 1   
   144  134  143 1   
   145  144  145 1   
   146  144  153 1   
   147  145  146 1   
   148  145  148 1   
   149  145  154 1   
   150  146  147 2   
   151  146  159 1   
   152  148  149 1   
   153  148  155 1   
   154  148  156 1   
   155  149  150 1   
   156  149  157 1   
   157  149  158 1   
   158  150  151 1   
   159  150  152 1   
   160  159  160 1   
   161  159  168 1   
   162  160  161 1   
   163  160  163 1   
   164  160  169 1   
   165  161  162 2   
   166  161  174 1   
   167  163  164 1   
   168  163  170 1   
   169  163  171 1   
   170  164  165 1   
   171  164  172 1   
   172  164  173 1   
   173  165  166 1   
   174  165  167 1   
   175  174  175 1   
   176  174  179 1   
   177  175  176 1   
   178  175  177 1   
   179  175  178 1   
   180  181  182 1   
   181  181  183 1   
   182  184  185 1   
   183  184  186 1   
   184  187  188 1   
   185  187  189 1   
   186  190  191 1   
   187  190  192 1   
   188  193  194 1   
   189  193  195 1   
   190  196  197 1   
   191  196  198 1   
   192  199  200 1   
   193  199  201 1   
@<TRIPOS>SUBSTRUCTURE
     1 MOL         1 TEMP              0 ****  ****    0 ROOT
