@<TRIPOS>MOLECULE
MOL
  181   177     1     0     0
SMALL
resp


@<TRIPOS>ATOM
      1 C1          1.8650   -1.1060    5.2870 c3        1 MOL     -0.346581
      2 C2          3.0290   -0.7000    4.3330 c         1 MOL      0.644950
      3 O1          3.0610    0.3550    3.6380 o         1 MOL     -0.602941
      4 H1          1.8360   -2.1920    5.3820 hc        1 MOL      0.085493
      5 H2          2.0270   -0.6610    6.2690 hc        1 MOL      0.085493
      6 H3          0.9180   -0.7520    4.8790 hc        1 MOL      0.085493
      7 N1          4.0240   -1.5420    4.3240 n         1 MOL     -0.367242
      8 C3          5.3390   -1.3810    3.6910 c3        1 MOL      0.013643
      9 C4          5.3980   -2.3410    2.4660 c         1 MOL      0.642323
     10 O2          6.4820   -2.5190    1.8930 o         1 MOL     -0.601660
     11 C5          6.4740   -1.6310    4.7290 c3        1 MOL     -0.263816
     12 C6          7.7540   -0.8230    4.3800 c         1 MOL      0.734408
     13 O3          7.7160    0.3990    4.4590 o         1 MOL     -0.707936
     14 O4          8.8690   -1.3830    4.3010 o         1 MOL     -0.707936
     15 H4          3.8760   -2.3250    4.9470 hn        1 MOL      0.216933
     16 H5          5.3900   -0.3400    3.3620 h1        1 MOL      0.095422
     17 H6          6.6930   -2.6930    4.5860 hc        1 MOL      0.051404
     18 H7          6.1610   -1.3900    5.7430 hc        1 MOL      0.051404
     19 N2          4.3250   -2.8720    1.9530 n         1 MOL     -0.501118
     20 C7          4.1850   -3.7140    0.7290 c3        1 MOL      0.308007
     21 C8          4.3820   -2.9170   -0.6430 c         1 MOL      0.483450
     22 O5          3.4090   -2.4620   -1.2080 o         1 MOL     -0.590937
     23 C9          5.0280   -4.9480    0.9630 c3        1 MOL     -0.259895
     24 H8          3.4740   -2.6450    2.4380 hn        1 MOL      0.253902
     25 H9          3.1490   -4.0590    0.7100 h1        1 MOL      0.030175
     26 H10         4.9910   -5.2640    2.0020 hc        1 MOL      0.052543
     27 H11         4.6590   -5.7890    0.3590 hc        1 MOL      0.052543
     28 H12         6.0660   -4.7440    0.6820 hc        1 MOL      0.052543
     29 N3          5.6660   -2.5750   -0.8830 n         1 MOL     -0.535825
     30 C10         6.0440   -1.6220   -1.9030 c3        1 MOL      0.041325
     31 C11         6.3350   -0.2190   -1.4700 c         1 MOL      0.501015
     32 O6          6.9980    0.4890   -2.2240 o         1 MOL     -0.547531
     33 C12         7.1910   -2.2740   -2.8050 c3        1 MOL     -0.190121
     34 C13         6.9000   -3.6480   -3.4640 c         1 MOL      0.663455
     35 O7          5.7470   -3.8360   -3.8840 o         1 MOL     -0.708986
     36 O8          7.8380   -4.4430   -3.6140 o         1 MOL     -0.708986
     37 H13         6.3750   -2.9170   -0.2400 hn        1 MOL      0.399191
     38 H14         5.1490   -1.5510   -2.5190 h1        1 MOL      0.085225
     39 H15         8.0700   -2.4130   -2.1770 hc        1 MOL      0.041430
     40 H16         7.4340   -1.5920   -3.6140 hc        1 MOL      0.041430
     41 N4          5.9040    0.1700   -0.2840 n         1 MOL     -0.176224
     42 C14         5.9940    1.5540    0.1960 c3        1 MOL     -0.181591
     43 C15         5.2850    2.5570   -0.7770 c         1 MOL      0.469976
     44 O9          5.8690    3.6560   -1.0420 o         1 MOL     -0.504683
     45 H17         5.5820   -0.5130    0.3750 hn        1 MOL      0.176797
     46 H18         6.9840    1.9770    0.3790 h1        1 MOL      0.119801
     47 H19         5.5830    1.6290    1.2050 h1        1 MOL      0.119801
     48 N5          4.1450    2.0620   -1.3740 n         1 MOL     -0.279911
     49 C16         3.2370    2.8590   -2.2140 c3        1 MOL     -0.103551
     50 C17         2.7770    4.1930   -1.5140 c         1 MOL      0.557881
     51 O10         2.6250    4.3210   -0.2960 o         1 MOL     -0.479053
     52 C18         1.9950    2.0160   -2.6710 c3        1 MOL     -0.051949
     53 C19         2.3950    0.6430   -3.3580 c         1 MOL      0.438304
     54 N6          3.0350    0.7200   -4.5170 n         1 MOL     -0.800987
     55 O11         2.1980   -0.4630   -2.8560 o         1 MOL     -0.430364
     56 H20         3.7630    1.2210   -0.9740 hn        1 MOL      0.259492
     57 H21         3.7930    3.1390   -3.1060 h1        1 MOL      0.057924
     58 H22         1.4660    2.6270   -3.4050 hc        1 MOL      0.064132
     59 H23         1.3200    1.9260   -1.8250 hc        1 MOL      0.064132
     60 H24         3.4010    1.5990   -4.8590 hn        1 MOL      0.394771
     61 H25         3.4440   -0.1570   -4.7880 hn        1 MOL      0.394771
     62 N7          2.4130    5.1660   -2.3720 n         1 MOL     -0.455937
     63 C20         2.0640    6.5370   -2.0240 c3        1 MOL     -0.079324
     64 C21         0.5780    6.8190   -1.8210 c         1 MOL      0.510535
     65 O12        -0.2420    6.1810   -2.5590 o         1 MOL     -0.493472
     66 H26         2.4000    5.0360   -3.3720 hn        1 MOL      0.302617
     67 H27         2.5060    7.1950   -2.7670 h1        1 MOL      0.088578
     68 H28         2.5980    6.7970   -1.1070 h1        1 MOL      0.088578
     69 N8          0.1910    7.7320   -0.8830 n         1 MOL     -0.406989
     70 C22        -1.2270    8.1670   -0.5910 c3        1 MOL     -0.375538
     71 C23        -2.1260    6.9990   -0.0840 c         1 MOL      0.509427
     72 O13        -3.3730    7.1500   -0.2060 o         1 MOL     -0.556832
     73 C24        -1.3320    9.4100    0.3930 c3        1 MOL      0.439430
     74 C25        -0.8530    9.0120    1.8030 c3        1 MOL     -0.163477
     75 O14        -0.6330   10.5450   -0.0180 oh        1 MOL     -0.626224
     76 H29         0.9560    8.2180   -0.4390 hn        1 MOL      0.256107
     77 H30        -1.6240    8.5100   -1.5410 h1        1 MOL      0.211812
     78 H31        -2.3800    9.6800    0.5510 h1        1 MOL      0.040447
     79 H32         0.3050   10.3610    0.0300 ho        1 MOL      0.391949
     80 H33        -1.5850    8.3810    2.2970 hc        1 MOL      0.033738
     81 H34         0.0470    8.3950    1.7480 hc        1 MOL      0.033738
     82 H35        -0.7160    9.9010    2.4060 hc        1 MOL      0.033738
     83 N9         -1.6380    5.7700    0.1400 n         1 MOL     -0.203048
     84 C26        -2.3740    4.5850    0.7610 c3        1 MOL     -0.039463
     85 C27        -2.1670    3.2420   -0.0540 c         1 MOL      0.516598
     86 O15        -1.5360    3.2300   -1.1230 o         1 MOL     -0.506313
     87 C28        -1.8680    4.3970    2.2680 c3        1 MOL     -0.051236
     88 C29        -0.3450    4.0090    2.4240 c3        1 MOL     -0.045275
     89 C30        -2.0970    5.6800    3.0820 c3        1 MOL     -0.070445
     90 C31         0.0490    3.8420    3.9300 c3        1 MOL     -0.438898
     91 H36        -0.6890    5.5750   -0.1450 hn        1 MOL      0.226098
     92 H37        -3.4230    4.8700    0.8130 h1        1 MOL      0.090942
     93 H38        -2.5490    3.6780    2.7250 hc        1 MOL      0.052699
     94 H39         0.3350    4.6480    1.8660 hc        1 MOL      0.091080
     95 H40        -0.1680    3.0500    1.9290 hc        1 MOL      0.091080
     96 H41        -1.3130    6.3940    2.8460 hc        1 MOL      0.019582
     97 H42        -3.0900    6.1110    2.9480 hc        1 MOL      0.019582
     98 H43        -1.8940    5.4040    4.1170 hc        1 MOL      0.019582
     99 H44        -0.6730    3.2590    4.4960 hc        1 MOL      0.127864
    100 H45         0.9780    3.2620    3.9690 hc        1 MOL      0.127864
    101 H46         0.3680    4.7880    4.3670 hc        1 MOL      0.127864
    102 N10        -2.7430    2.1500    0.3520 n         1 MOL     -0.539074
    103 C32        -2.3460    0.8370   -0.1500 c3        1 MOL      0.284316
    104 C33        -3.5030   -0.2440   -0.2020 c         1 MOL      0.437146
    105 O16        -3.3800   -1.4210   -0.0520 o         1 MOL     -0.458497
    106 C34        -1.0610    0.3380    0.4670 c3        1 MOL     -0.097496
    107 C35        -0.3890   -0.7920   -0.4020 c         1 MOL      0.562919
    108 O17         0.7030   -1.2050   -0.0040 o         1 MOL     -0.695122
    109 O18        -0.9290   -1.3100   -1.3750 o         1 MOL     -0.695122
    110 H47        -3.2010    2.1970    1.2460 hn        1 MOL      0.249725
    111 H48        -2.0800    0.9690   -1.1980 h1        1 MOL     -0.006132
    112 H49        -1.2920   -0.0030    1.4820 hc        1 MOL      0.047239
    113 H50        -0.2740    1.0910    0.4800 hc        1 MOL      0.047239
    114 N11        -4.6690    0.3950   -0.4110 n         1 MOL     -0.337783
    115 C36        -5.8880   -0.3090   -0.7100 c3        1 MOL      0.062265
    116 C37        -6.2460   -1.3920    0.3070 c         1 MOL      0.276215
    117 O19        -6.4230   -1.0440    1.5020 o         1 MOL     -0.473680
    118 C38        -7.0470    0.6700   -0.8470 c3        1 MOL     -0.260937
    119 C39        -8.3310    0.0050   -1.3860 ca        1 MOL      0.076684
    120 C40        -8.4830   -0.0830   -2.7690 ca        1 MOL     -0.152009
    121 C41        -9.3010   -0.6150   -0.5900 ca        1 MOL     -0.152009
    122 C42        -9.5090   -0.7720   -3.3410 ca        1 MOL     -0.105127
    123 C43       -10.3380   -1.4060   -1.2290 ca        1 MOL     -0.105127
    124 C44       -10.3800   -1.5440   -2.5620 ca        1 MOL     -0.118216
    125 H51        -4.6800    1.3910   -0.5150 hn        1 MOL      0.238102
    126 H52        -5.6970   -0.7670   -1.6810 h1        1 MOL      0.068128
    127 H53        -6.8440    1.4890   -1.5470 hc        1 MOL      0.115706
    128 H54        -7.4020    1.1430    0.0660 hc        1 MOL      0.115706
    129 H55        -7.7870    0.4650   -3.3780 ha        1 MOL      0.110108
    130 H56        -9.0810   -0.8360    0.4390 ha        1 MOL      0.110108
    131 H57        -9.5290   -0.7210   -4.4220 ha        1 MOL      0.098710
    132 H58       -10.9720   -1.9930   -0.5850 ha        1 MOL      0.098710
    133 H59       -11.0880   -2.1660   -3.0870 ha        1 MOL      0.097853
    134 N12        -6.5040   -2.6850   -0.0800 n         1 MOL      0.085530
    135 C45        -6.8420   -3.7750    0.8300 c3        1 MOL      0.069883
    136 C46        -5.8870   -3.9870    2.0030 c         1 MOL      0.214749
    137 O20        -6.2620   -4.4560    3.0770 o         1 MOL     -0.488667
    138 C47        -7.1230   -4.9630    0.0070 c3        1 MOL      0.063429
    139 C48        -7.6180   -4.3790   -1.3430 c3        1 MOL     -0.134852
    140 C49        -6.5720   -3.2200   -1.4380 c3        1 MOL     -0.032960
    141 H60        -7.8480   -3.4960    1.1590 h1        1 MOL      0.038290
    142 H61        -6.1180   -5.3650   -0.1480 hc        1 MOL      0.002976
    143 H62        -7.8330   -5.6400    0.4850 hc        1 MOL      0.002976
    144 H63        -7.6430   -5.1530   -2.1110 hc        1 MOL      0.049224
    145 H64        -8.6370   -4.0010   -1.2730 hc        1 MOL      0.049224
    146 H65        -5.6030   -3.5860   -1.7550 h1        1 MOL      0.037158
    147 H66        -6.8330   -2.4520   -2.1720 h1        1 MOL      0.037158
    148 N13        -4.6280   -3.5340    1.8220 n         1 MOL      0.034791
    149 C50        -3.5480   -3.6470    2.8280 c3        1 MOL     -0.211265
    150 C51        -3.5910   -2.5490    3.8300 c         1 MOL      0.412989
    151 O21        -3.0220   -2.6750    4.9360 o         1 MOL     -0.545984
    152 C52        -2.1610   -3.5000    2.1100 c3        1 MOL     -0.024704
    153 C53        -1.8640   -4.6950    1.1790 c3        1 MOL     -0.003136
    154 C54        -0.6380   -4.5030    0.4120 c         1 MOL      0.734533
    155 O22         0.5080   -4.8290    0.8400 o         1 MOL     -0.760647
    156 O23        -0.7040   -4.2360   -0.7990 o         1 MOL     -0.760647
    157 H67        -4.3230   -3.1430    0.9430 hn        1 MOL      0.120201
    158 H68        -3.5330   -4.5780    3.3850 h1        1 MOL      0.142150
    159 H69        -1.3390   -3.5560    2.8250 hc        1 MOL      0.055265
    160 H70        -2.0480   -2.5230    1.6400 hc        1 MOL      0.055265
    161 H71        -2.7100   -4.8480    0.5160 hc        1 MOL     -0.026573
    162 H72        -1.8190   -5.6390    1.7230 hc        1 MOL     -0.026573
    163 N14        -4.3470   -1.5040    3.5010 n         1 MOL     -0.048674
    164 C55        -4.5030   -0.3170    4.3760 c3        1 MOL     -0.269952
    165 H73        -3.5190    0.0790    4.6280 h1        1 MOL      0.101720
    166 H74        -5.0790    0.4470    3.8550 h1        1 MOL      0.101720
    167 H75        -5.0230   -0.6040    5.2900 h1        1 MOL      0.101720
    168 H76        -4.7480   -1.4980    2.5700 hn        1 MOL      0.090653
    169 Ca1         0.9570   -2.9390   -2.2540 Ca        1 MOL      1.740095
    170 O24         2.4940   -5.2040   -1.9030 oh        1 MOL     -0.808630
    171 H77         3.3950   -5.3770   -2.1810 ho        1 MOL      0.400836
    172 H78         2.3720   -5.7650   -1.1330 ho        1 MOL      0.400836
    173 O25        -0.1150   -1.1850   -4.4300 oh        1 MOL     -0.808630
    174 H79        -0.7410   -1.2750   -5.1530 ho        1 MOL      0.400836
    175 H80        -0.0600   -0.2410   -4.2720 ho        1 MOL      0.400836
    176 O26        -0.5100   -4.5020   -3.7850 oh        1 MOL     -0.808630
    177 H81        -1.3750   -4.7300   -4.1250 ho        1 MOL      0.400836
    178 H82         0.0460   -5.2350   -4.0590 ho        1 MOL      0.400836
    179 O27         2.3710   -3.6300   -4.4980 oh        1 MOL     -0.808630
    180 H83         2.3040   -4.4300   -5.0270 ho        1 MOL      0.400836
    181 H84         2.7900   -2.9950   -5.0720 ho        1 MOL      0.400836
@<TRIPOS>BOND
     1    1    2 1   
     2    1    4 1   
     3    1    5 1   
     4    1    6 1   
     5    2    3 2   
     6    2    7 1   
     7    7    8 1   
     8    7   15 1   
     9    8    9 1   
    10    8   11 1   
    11    8   16 1   
    12    9   10 2   
    13    9   19 1   
    14   11   12 1   
    15   11   17 1   
    16   11   18 1   
    17   12   13 1   
    18   12   14 1   
    19   19   20 1   
    20   19   24 1   
    21   20   21 1   
    22   20   23 1   
    23   20   25 1   
    24   21   22 2   
    25   21   29 1   
    26   23   26 1   
    27   23   27 1   
    28   23   28 1   
    29   29   30 1   
    30   29   37 1   
    31   30   31 1   
    32   30   33 1   
    33   30   38 1   
    34   31   32 2   
    35   31   41 1   
    36   33   34 1   
    37   33   39 1   
    38   33   40 1   
    39   34   35 1   
    40   34   36 1   
    41   41   42 1   
    42   41   45 1   
    43   42   43 1   
    44   42   46 1   
    45   42   47 1   
    46   43   44 2   
    47   43   48 1   
    48   48   49 1   
    49   48   56 1   
    50   49   50 1   
    51   49   52 1   
    52   49   57 1   
    53   50   51 2   
    54   50   62 1   
    55   52   53 1   
    56   52   58 1   
    57   52   59 1   
    58   53   54 1   
    59   53   55 2   
    60   54   60 1   
    61   54   61 1   
    62   62   63 1   
    63   62   66 1   
    64   63   64 1   
    65   63   67 1   
    66   63   68 1   
    67   64   65 2   
    68   64   69 1   
    69   69   70 1   
    70   69   76 1   
    71   70   71 1   
    72   70   73 1   
    73   70   77 1   
    74   71   72 2   
    75   71   83 1   
    76   73   74 1   
    77   73   75 1   
    78   73   78 1   
    79   74   80 1   
    80   74   81 1   
    81   74   82 1   
    82   75   79 1   
    83   83   84 1   
    84   83   91 1   
    85   84   85 1   
    86   84   87 1   
    87   84   92 1   
    88   85   86 2   
    89   85  102 1   
    90   87   88 1   
    91   87   89 1   
    92   87   93 1   
    93   88   90 1   
    94   88   94 1   
    95   88   95 1   
    96   89   96 1   
    97   89   97 1   
    98   89   98 1   
    99   90   99 1   
   100   90  100 1   
   101   90  101 1   
   102  102  103 1   
   103  102  110 1   
   104  103  104 1   
   105  103  106 1   
   106  103  111 1   
   107  104  105 2   
   108  104  114 1   
   109  106  107 1   
   110  106  112 1   
   111  106  113 1   
   112  107  108 1   
   113  107  109 1   
   114  114  115 1   
   115  114  125 1   
   116  115  116 1   
   117  115  118 1   
   118  115  126 1   
   119  116  117 2   
   120  116  134 1   
   121  118  119 1   
   122  118  127 1   
   123  118  128 1   
   124  119  120 ar  
   125  119  121 ar  
   126  120  122 ar  
   127  120  129 1   
   128  121  123 ar  
   129  121  130 1   
   130  122  124 ar  
   131  122  131 1   
   132  123  124 ar  
   133  123  132 1   
   134  124  133 1   
   135  134  135 1   
   136  134  140 1   
   137  135  136 1   
   138  135  138 1   
   139  135  141 1   
   140  136  137 2   
   141  136  148 1   
   142  138  139 1   
   143  138  142 1   
   144  138  143 1   
   145  139  140 1   
   146  139  144 1   
   147  139  145 1   
   148  140  146 1   
   149  140  147 1   
   150  148  149 1   
   151  148  157 1   
   152  149  150 1   
   153  149  152 1   
   154  149  158 1   
   155  150  151 2   
   156  150  163 1   
   157  152  153 1   
   158  152  159 1   
   159  152  160 1   
   160  153  154 1   
   161  153  161 1   
   162  153  162 1   
   163  154  155 1   
   164  154  156 1   
   165  163  164 1   
   166  163  168 1   
   167  164  165 1   
   168  164  166 1   
   169  164  167 1   
   170  170  171 1   
   171  170  172 1   
   172  173  174 1   
   173  173  175 1   
   174  176  177 1   
   175  176  178 1   
   176  179  180 1   
   177  179  181 1   
@<TRIPOS>SUBSTRUCTURE
     1 MOL         1 TEMP              0 ****  ****    0 ROOT
