@<TRIPOS>MOLECULE
MOL
  191   184     1     0     0
SMALL
resp


@<TRIPOS>ATOM
      1 C1         -5.7590   -1.4490    4.2960 c3        1 MOL     -0.527271
      2 C2         -6.4400   -1.4050    2.8740 c         1 MOL      0.534194
      3 O1         -5.7730   -1.2340    1.8660 o         1 MOL     -0.491350
      4 H1         -6.5030   -1.7170    5.0470 hc        1 MOL      0.146952
      5 H2         -4.9620   -2.1920    4.2960 hc        1 MOL      0.146952
      6 H3         -5.3430   -0.4690    4.5310 hc        1 MOL      0.146952
      7 N1         -7.7800   -1.5620    2.8210 n         1 MOL     -0.448934
      8 C3         -8.6200   -1.7930    1.6500 c3        1 MOL      0.301133
      9 C4         -8.4300   -0.8690    0.3930 c         1 MOL      0.232002
     10 O2         -8.4930   -1.3880   -0.7530 o         1 MOL     -0.356852
     11 C5         -8.7160   -3.3140    1.3270 c3        1 MOL     -0.384316
     12 C6         -9.8100   -3.6400    0.2930 c         1 MOL      0.718223
     13 O3        -10.9920   -3.4020    0.6590 o         1 MOL     -0.641783
     14 O4         -9.5240   -4.2490   -0.7820 o         1 MOL     -0.641783
     15 H4         -8.1560   -1.5790    3.7650 hn        1 MOL      0.277620
     16 H5         -9.6200   -1.6380    2.0780 h1        1 MOL     -0.025392
     17 H6         -8.5660   -3.9440    2.1990 hc        1 MOL      0.112768
     18 H7         -7.8020   -3.5540    0.7790 hc        1 MOL      0.112768
     19 N2         -8.2690    0.4380    0.7490 n         1 MOL     -0.333432
     20 C7         -8.1310    1.5510   -0.2290 c3        1 MOL     -0.068637
     21 C8         -6.7530    1.7350   -0.8040 c         1 MOL      0.474574
     22 O5         -6.6340    2.6750   -1.6570 o         1 MOL     -0.586076
     23 C9         -8.7350    2.7860    0.4950 c3        1 MOL      0.093209
     24 C10       -10.2510    2.6580    0.6830 c3        1 MOL      0.009391
     25 C11       -10.8680    3.8290    1.3600 c3        1 MOL     -0.330591
     26 C12       -12.3250    3.3330    1.7050 c3        1 MOL      0.218085
     27 N3        -13.0800    4.3400    2.4850 n4        1 MOL     -0.248732
     28 H8         -8.2970    0.6740    1.7320 hn        1 MOL      0.216981
     29 H9         -8.8540    1.4800   -1.0470 h1        1 MOL      0.129872
     30 H10        -8.6590    3.6750   -0.1360 hc        1 MOL      0.009322
     31 H11        -8.2370    3.0330    1.4290 hc        1 MOL      0.009322
     32 H12       -10.5320    1.7860    1.2860 hc        1 MOL      0.049887
     33 H13       -10.6980    2.6150   -0.3120 hc        1 MOL      0.049887
     34 H14       -11.0130    4.6650    0.6840 hc        1 MOL      0.105588
     35 H15       -10.3320    4.0940    2.2780 hc        1 MOL      0.105588
     36 H16       -12.3350    2.4490    2.3480 hx        1 MOL      0.033282
     37 H17       -12.8930    3.0130    0.8370 hx        1 MOL      0.033282
     38 H18       -14.0360    4.0460    2.6360 hn        1 MOL      0.239374
     39 H19       -12.5880    4.3520    3.3680 hn        1 MOL      0.239374
     40 H20       -13.0500    5.2590    2.0770 hn        1 MOL      0.239374
     41 N4         -5.7310    1.0020   -0.4290 n         1 MOL     -0.214076
     42 C13        -4.3760    1.1950   -0.9480 c3        1 MOL     -0.119818
     43 C14        -4.2270    0.6130   -2.3760 c         1 MOL      0.621929
     44 O6         -4.3640   -0.5560   -2.6380 o         1 MOL     -0.481969
     45 C15        -3.3910    0.6320    0.0380 c3        1 MOL     -0.105402
     46 C16        -2.0350    1.2210   -0.1300 c         1 MOL      0.742542
     47 O7         -1.5090    1.0930   -1.2990 o         1 MOL     -0.765050
     48 O8         -1.4910    1.9570    0.7250 o         1 MOL     -0.765050
     49 H21        -5.8520    0.3900    0.3720 hn        1 MOL      0.221904
     50 H22        -4.1390    2.2580   -0.9840 h1        1 MOL      0.020019
     51 H23        -3.3520   -0.4530   -0.0670 hc        1 MOL      0.045267
     52 H24        -3.6710    0.7470    1.0790 hc        1 MOL      0.045267
     53 N5         -3.8790    1.5240   -3.3280 n         1 MOL     -0.326141
     54 C17        -3.7050    1.1620   -4.7830 c3        1 MOL     -0.289902
     55 C18        -2.4730    0.3290   -5.0540 c         1 MOL      0.644186
     56 O9         -2.3480   -0.2130   -6.0930 o         1 MOL     -0.546302
     57 H25        -3.7230    2.4780   -3.0320 hn        1 MOL      0.261681
     58 H26        -3.6430    2.1260   -5.2910 h1        1 MOL      0.145981
     59 H27        -4.5280    0.6140   -5.2370 h1        1 MOL      0.145981
     60 N6         -1.5970    0.1690   -4.0750 n         1 MOL     -0.566461
     61 C19        -0.4260   -0.7720   -4.1840 c3        1 MOL     -0.064518
     62 C20        -0.6850   -2.2360   -3.7460 c         1 MOL      0.585510
     63 O10         0.1850   -3.0890   -3.8360 o         1 MOL     -0.570568
     64 C21         0.7420   -0.1480   -3.3890 c3        1 MOL     -0.424337
     65 C22         1.1370    1.2090   -3.9350 c         1 MOL      0.917431
     66 N7          1.3620    1.3170   -5.2310 n         1 MOL     -0.842960
     67 O11         1.2400    2.2310   -3.2580 o         1 MOL     -0.743015
     68 H28        -1.7080    0.6630   -3.2030 hn        1 MOL      0.346472
     69 H29        -0.0760   -0.8110   -5.2190 h1        1 MOL      0.098878
     70 H30         1.6440   -0.7470   -3.3540 hc        1 MOL      0.162748
     71 H31         0.3700   -0.0890   -2.3700 hc        1 MOL      0.162748
     72 H32         1.1120    0.5710   -5.8600 hn        1 MOL      0.390829
     73 H33         1.2470    2.2790   -5.5260 hn        1 MOL      0.390829
     74 N8         -1.8660   -2.4950   -3.1790 n         1 MOL     -0.259614
     75 C23        -2.2330   -3.7350   -2.4760 c3        1 MOL     -0.299200
     76 C24        -1.8560   -3.9230   -1.0230 c         1 MOL      0.535985
     77 O12        -2.0670   -5.0310   -0.5180 o         1 MOL     -0.542081
     78 H34        -2.5210   -1.7310   -3.2670 hn        1 MOL      0.241365
     79 H35        -1.8790   -4.6030   -3.0450 h1        1 MOL      0.168656
     80 H36        -3.3150   -3.7810   -2.5950 h1        1 MOL      0.168656
     81 N9         -1.3330   -2.9190   -0.3500 n         1 MOL     -0.314581
     82 C25        -0.5760   -3.0510    0.8810 c3        1 MOL      0.231085
     83 C26         0.7950   -2.3240    0.7740 c         1 MOL      0.220689
     84 O13         0.8980   -1.3160    0.0140 o         1 MOL     -0.394656
     85 C27        -1.4860   -2.5430    2.0060 c3        1 MOL     -0.304700
     86 C28        -0.8500   -2.3160    3.3340 ca        1 MOL      0.117447
     87 C29        -0.9080   -3.2790    4.3630 ca        1 MOL     -0.153708
     88 C30        -0.3030   -1.0070    3.5850 ca        1 MOL     -0.153708
     89 C31        -0.2730   -2.9900    5.5930 ca        1 MOL     -0.268919
     90 C32         0.3420   -0.7730    4.8020 ca        1 MOL     -0.268919
     91 C33         0.4170   -1.7730    5.7970 ca        1 MOL      0.359821
     92 O14         1.1180   -1.6000    6.9580 oh        1 MOL     -0.514150
     93 H37        -1.4960   -1.9990   -0.7210 hn        1 MOL      0.236482
     94 H38        -0.3850   -4.1130    1.0450 h1        1 MOL      0.054680
     95 H39        -2.3090   -3.2520    2.0360 hc        1 MOL      0.126711
     96 H40        -1.8090   -1.5820    1.5920 hc        1 MOL      0.126711
     97 H41        -1.3370   -4.2490    4.1830 ha        1 MOL      0.145618
     98 H42        -0.2580   -0.2710    2.7990 ha        1 MOL      0.145618
     99 H43        -0.1760   -3.7270    6.3740 ha        1 MOL      0.151273
    100 H44         0.9330    0.1040    4.9890 ha        1 MOL      0.151273
    101 H45         1.7560   -0.8780    6.9340 ho        1 MOL      0.390471
    102 N10         1.8790   -2.7880    1.4410 n         1 MOL     -0.367038
    103 C34         3.2010   -2.0490    1.4770 c3        1 MOL     -0.040661
    104 C35         3.9130   -2.0160    0.1130 c         1 MOL      0.208581
    105 O15         4.3840   -0.9330   -0.2000 o         1 MOL     -0.427312
    106 C36         4.0790   -2.6140    2.5870 c3        1 MOL      0.143136
    107 C37         3.3430   -2.4280    3.9470 c3        1 MOL      0.118437
    108 C38         5.5270   -2.2130    2.6770 c3        1 MOL     -0.457290
    109 C39         3.8070   -3.2760    5.1200 c3        1 MOL     -0.095232
    110 H46         1.7730   -3.6440    1.9720 hn        1 MOL      0.257582
    111 H47         2.9320   -1.0140    1.6990 h1        1 MOL      0.092233
    112 H48         4.1640   -3.6790    2.3960 hc        1 MOL      0.009895
    113 H49         2.3320   -2.8200    3.8830 hc        1 MOL     -0.021554
    114 H50         3.1530   -1.4220    4.3280 hc        1 MOL     -0.021554
    115 H51         6.1170   -2.5350    1.8240 hc        1 MOL      0.129459
    116 H52         5.6880   -1.1280    2.6760 hc        1 MOL      0.129459
    117 H53         6.0320   -2.6690    3.5250 hc        1 MOL      0.129459
    118 H54         3.9520   -4.2840    4.7410 hc        1 MOL      0.015679
    119 H55         4.7620   -3.0270    5.5750 hc        1 MOL      0.015679
    120 H56         2.9840   -3.3010    5.8410 hc        1 MOL      0.015679
    121 N11         3.8320   -2.9780   -0.7400 n         1 MOL      0.019142
    122 C40         4.1930   -3.0740   -2.1560 c3        1 MOL     -0.168131
    123 C41         5.7070   -2.9360   -2.4680 c         1 MOL      0.651044
    124 O16         6.0630   -2.4280   -3.5330 o         1 MOL     -0.542350
    125 C42         3.7020   -4.4080   -2.6400 c3        1 MOL      0.052320
    126 O17         4.4370   -5.4500   -2.0520 oh        1 MOL     -0.644291
    127 H57         3.4730   -3.8070   -0.2880 hn        1 MOL      0.206560
    128 H58         3.7200   -2.2930   -2.7530 h1        1 MOL      0.091722
    129 H59         3.8660   -4.5590   -3.7080 h1        1 MOL      0.081302
    130 H60         2.6300   -4.4880   -2.4880 h1        1 MOL      0.081302
    131 H61         4.3570   -6.1400   -2.7160 ho        1 MOL      0.439692
    132 N12         6.5680   -3.2310   -1.4790 n         1 MOL     -0.419971
    133 C43         7.9670   -2.9000   -1.4210 c3        1 MOL      0.101759
    134 C44         8.3840   -1.4220   -1.5970 c         1 MOL      0.457305
    135 O18         9.5710   -1.1000   -1.8620 o         1 MOL     -0.539179
    136 C45         8.8200   -3.8410   -2.2710 c3        1 MOL     -0.266750
    137 H62         6.0890   -3.6010   -0.6630 hn        1 MOL      0.245078
    138 H63         8.2600   -3.0190   -0.3870 h1        1 MOL      0.081897
    139 H64         8.5390   -3.8580   -3.3200 hc        1 MOL      0.083726
    140 H65         9.8810   -3.6150   -2.1820 hc        1 MOL      0.083726
    141 H66         8.7100   -4.9010   -2.0480 hc        1 MOL      0.083726
    142 N13         7.4560   -0.4640   -1.4560 n         1 MOL     -0.386596
    143 C46         7.6740    0.9860   -1.3080 c3        1 MOL      0.402775
    144 C47         7.6630    1.3960    0.2130 c         1 MOL      0.326382
    145 O19         7.1330    0.6530    1.0650 o         1 MOL     -0.473269
    146 C48         6.6590    1.8520   -2.0930 c3        1 MOL     -0.138456
    147 H67         6.5510   -0.8560   -1.2350 hn        1 MOL      0.166126
    148 H68         8.6240    1.3060   -1.7280 h1        1 MOL     -0.026155
    149 H69         6.5920    2.9090   -1.8160 hc        1 MOL      0.028373
    150 H70         6.9540    1.7330   -3.1410 hc        1 MOL      0.028373
    151 H71         5.6410    1.4770   -1.9960 hc        1 MOL      0.028373
    152 N14         8.1970    2.5740    0.4330 n         1 MOL     -0.326106
    153 C49         8.4120    3.3450    1.7060 c3        1 MOL     -0.052720
    154 C50         9.1050    2.5300    2.8560 c         1 MOL      0.394399
    155 O20         9.0460    2.8710    4.0480 o         1 MOL     -0.496948
    156 C51         7.1880    4.1530    2.1230 c3        1 MOL      0.254524
    157 C52         6.6100    5.0250    0.9880 c3        1 MOL     -0.221570
    158 C53         5.2690    5.5980    1.4990 c         1 MOL      0.631199
    159 O21         5.1430    6.5870    2.2000 o         1 MOL     -0.677958
    160 O22         4.1930    5.0910    1.0980 o         1 MOL     -0.677958
    161 H72         8.6800    2.8990   -0.3880 hn        1 MOL      0.228462
    162 H73         9.1660    4.1080    1.4940 h1        1 MOL      0.077453
    163 H74         7.6020    4.8100    2.8910 hc        1 MOL     -0.014304
    164 H75         6.3700    3.6170    2.6080 hc        1 MOL     -0.014304
    165 H76         6.4200    4.4060    0.1140 hc        1 MOL      0.023054
    166 H77         7.3460    5.7750    0.7040 hc        1 MOL      0.023054
    167 N15         9.8200    1.4590    2.5240 n         1 MOL     -0.240731
    168 C54        10.1980    0.3960    3.4470 c3        1 MOL     -0.086034
    169 H78         9.5060    0.3850    4.2900 h1        1 MOL      0.070988
    170 H79        10.1580   -0.5640    2.9320 h1        1 MOL      0.070988
    171 H80        11.2100    0.5730    3.8110 h1        1 MOL      0.070988
    172 H81         9.9240    1.2320    1.5440 hn        1 MOL      0.190933
    173 Ca1         0.2110    3.2260   -1.0670 Ca        1 MOL      1.793597
    174 O23         0.9590    3.6400    1.4780 oh        1 MOL     -0.825671
    175 H82         1.8120    3.6730    1.9040 ho        1 MOL      0.403257
    176 H83         0.3460    3.4040    2.1750 ho        1 MOL      0.403257
    177 O24        -1.2540    3.7510   -3.2880 oh        1 MOL     -0.825671
    178 H84        -1.0740    3.7620   -4.2270 ho        1 MOL      0.403257
    179 H85        -2.1790    3.9940   -3.2230 ho        1 MOL      0.403257
    180 O25        -1.7260    4.6200    0.3000 oh        1 MOL     -0.825671
    181 H86        -2.0970    3.7390    0.3470 ho        1 MOL      0.403257
    182 H87        -1.9940    5.0370    1.1210 ho        1 MOL      0.403257
    183 O26         1.7660    1.3790   -0.2970 oh        1 MOL     -0.825671
    184 H88         2.5200    1.5910    0.2480 ho        1 MOL      0.403257
    185 H89         1.4840    0.5090    0.0190 ho        1 MOL      0.403257
    186 O27         0.5170    5.8630   -1.1980 oh        1 MOL     -0.825671
    187 H90        -0.0120    6.6420   -1.0500 ho        1 MOL      0.403257
    188 H91         1.3860    6.1010   -0.8500 ho        1 MOL      0.403257
    189 O28         2.7990    4.2110   -0.8970 oh        1 MOL     -0.825671
    190 H92         3.1870    4.7430   -1.5810 ho        1 MOL      0.403257
    191 H93         3.2870    4.4250   -0.1050 ho        1 MOL      0.403257
@<TRIPOS>BOND
     1    1    2 1   
     2    1    4 1   
     3    1    5 1   
     4    1    6 1   
     5    2    3 2   
     6    2    7 1   
     7    7    8 1   
     8    7   15 1   
     9    8    9 1   
    10    8   11 1   
    11    8   16 1   
    12    9   10 2   
    13    9   19 1   
    14   11   12 1   
    15   11   17 1   
    16   11   18 1   
    17   12   13 1   
    18   12   14 1   
    19   19   20 1   
    20   19   28 1   
    21   20   21 1   
    22   20   23 1   
    23   20   29 1   
    24   21   22 2   
    25   21   41 1   
    26   23   24 1   
    27   23   30 1   
    28   23   31 1   
    29   24   25 1   
    30   24   32 1   
    31   24   33 1   
    32   25   26 1   
    33   25   34 1   
    34   25   35 1   
    35   26   27 1   
    36   26   36 1   
    37   26   37 1   
    38   27   38 1   
    39   27   39 1   
    40   27   40 1   
    41   41   42 1   
    42   41   49 1   
    43   42   43 1   
    44   42   45 1   
    45   42   50 1   
    46   43   44 2   
    47   43   53 1   
    48   45   46 1   
    49   45   51 1   
    50   45   52 1   
    51   46   47 1   
    52   46   48 1   
    53   53   54 1   
    54   53   57 1   
    55   54   55 1   
    56   54   58 1   
    57   54   59 1   
    58   55   56 2   
    59   55   60 1   
    60   60   61 1   
    61   60   68 1   
    62   61   62 1   
    63   61   64 1   
    64   61   69 1   
    65   62   63 2   
    66   62   74 1   
    67   64   65 1   
    68   64   70 1   
    69   64   71 1   
    70   65   66 1   
    71   65   67 2   
    72   66   72 1   
    73   66   73 1   
    74   74   75 1   
    75   74   78 1   
    76   75   76 1   
    77   75   79 1   
    78   75   80 1   
    79   76   77 2   
    80   76   81 1   
    81   81   82 1   
    82   81   93 1   
    83   82   83 1   
    84   82   85 1   
    85   82   94 1   
    86   83   84 2   
    87   83  102 1   
    88   85   86 1   
    89   85   95 1   
    90   85   96 1   
    91   86   87 ar  
    92   86   88 ar  
    93   87   89 ar  
    94   87   97 1   
    95   88   90 ar  
    96   88   98 1   
    97   89   91 ar  
    98   89   99 1   
    99   90   91 ar  
   100   90  100 1   
   101   91   92 1   
   102   92  101 1   
   103  102  103 1   
   104  102  110 1   
   105  103  104 1   
   106  103  106 1   
   107  103  111 1   
   108  104  105 2   
   109  104  121 1   
   110  106  107 1   
   111  106  108 1   
   112  106  112 1   
   113  107  109 1   
   114  107  113 1   
   115  107  114 1   
   116  108  115 1   
   117  108  116 1   
   118  108  117 1   
   119  109  118 1   
   120  109  119 1   
   121  109  120 1   
   122  121  122 1   
   123  121  127 1   
   124  122  123 1   
   125  122  125 1   
   126  122  128 1   
   127  123  124 2   
   128  123  132 1   
   129  125  126 1   
   130  125  129 1   
   131  125  130 1   
   132  126  131 1   
   133  132  133 1   
   134  132  137 1   
   135  133  134 1   
   136  133  136 1   
   137  133  138 1   
   138  134  135 2   
   139  134  142 1   
   140  136  139 1   
   141  136  140 1   
   142  136  141 1   
   143  142  143 1   
   144  142  147 1   
   145  143  144 1   
   146  143  146 1   
   147  143  148 1   
   148  144  145 2   
   149  144  152 1   
   150  146  149 1   
   151  146  150 1   
   152  146  151 1   
   153  152  153 1   
   154  152  161 1   
   155  153  154 1   
   156  153  156 1   
   157  153  162 1   
   158  154  155 2   
   159  154  167 1   
   160  156  157 1   
   161  156  163 1   
   162  156  164 1   
   163  157  158 1   
   164  157  165 1   
   165  157  166 1   
   166  158  159 1   
   167  158  160 1   
   168  167  168 1   
   169  167  172 1   
   170  168  169 1   
   171  168  170 1   
   172  168  171 1   
   173  174  175 1   
   174  174  176 1   
   175  177  178 1   
   176  177  179 1   
   177  180  181 1   
   178  180  182 1   
   179  183  184 1   
   180  183  185 1   
   181  186  187 1   
   182  186  188 1   
   183  189  190 1   
   184  189  191 1   
@<TRIPOS>SUBSTRUCTURE
     1 MOL         1 TEMP              0 ****  ****    0 ROOT
