@<TRIPOS>MOLECULE
MOL
  178   175     1     0     0
SMALL
resp


@<TRIPOS>ATOM
      1 C1          1.7750    6.7320   -2.7470 c3        1 MOL     -0.364428
      2 C2          3.0950    6.3200   -2.1070 c         1 MOL      0.726971
      3 O1          3.5890    6.9690   -1.2100 o         1 MOL     -0.615545
      4 H1          1.3180    7.5270   -2.1570 hc        1 MOL      0.084753
      5 H2          1.9580    7.0920   -3.7600 hc        1 MOL      0.084753
      6 H3          1.1030    5.8740   -2.7810 hc        1 MOL      0.084753
      7 N1          3.7200    5.3230   -2.5950 n         1 MOL     -0.484263
      8 C3          4.9750    4.7470   -2.0280 c3        1 MOL      0.026390
      9 C4          4.5940    4.0400   -0.7260 c         1 MOL      0.526721
     10 O2          3.8890    3.0150   -0.7130 o         1 MOL     -0.537692
     11 C5          5.6480    3.8430   -3.0450 c3        1 MOL     -0.361641
     12 C6          6.8670    3.2280   -2.3200 c         1 MOL      0.801071
     13 O3          7.8170    3.9370   -1.9960 o         1 MOL     -0.731870
     14 O4          6.9780    1.9760   -2.3790 o         1 MOL     -0.731870
     15 H4          3.4450    5.0070   -3.5210 hn        1 MOL      0.276980
     16 H5          5.6990    5.5330   -1.8040 h1        1 MOL      0.068222
     17 H6          6.0050    4.5110   -3.8330 hc        1 MOL      0.083777
     18 H7          4.9480    3.1200   -3.4610 hc        1 MOL      0.083777
     19 N2          5.0790    4.5450    0.3710 n         1 MOL     -0.469941
     20 C7          4.9440    3.9640    1.6800 c3        1 MOL      0.346278
     21 C8          3.4090    3.7830    2.1940 c         1 MOL      0.412377
     22 O5          2.5580    4.6350    1.9780 o         1 MOL     -0.562948
     23 C9          5.6870    4.7960    2.6450 c3        1 MOL     -0.451027
     24 H8          5.6050    5.4050    0.3070 hn        1 MOL      0.310053
     25 H9          5.4000    2.9860    1.5100 h1        1 MOL      0.076005
     26 H10         6.6810    5.0800    2.2770 hc        1 MOL      0.114064
     27 H11         5.1330    5.7240    2.7210 hc        1 MOL      0.114064
     28 H12         5.7920    4.1950    3.5460 hc        1 MOL      0.114064
     29 N3          3.1040    2.7860    2.9800 n         1 MOL     -0.178554
     30 C10         3.9600    1.8230    3.6100 c3        1 MOL     -0.101884
     31 C11         4.1560    0.6700    2.6330 c         1 MOL      0.424894
     32 O6          3.4120    0.4990    1.7000 o         1 MOL     -0.494292
     33 C12         3.3290    1.2280    4.9140 c3        1 MOL     -0.212363
     34 C13         1.9120    0.6570    4.9490 c         1 MOL      0.663934
     35 O7          1.2140    0.6990    3.9120 o         1 MOL     -0.662290
     36 O8          1.4580    0.2400    6.0180 o         1 MOL     -0.662290
     37 H13         2.1860    2.8840    3.3900 hn        1 MOL      0.218333
     38 H14         4.8550    2.4110    3.8060 h1        1 MOL      0.031862
     39 H15         3.3260    2.0210    5.6670 hc        1 MOL      0.065274
     40 H16         3.9600    0.3890    5.2210 hc        1 MOL      0.065274
     41 N4          5.2460   -0.0090    2.9130 n         1 MOL     -0.394463
     42 C14         5.7710   -0.9990    1.9580 c3        1 MOL     -0.041959
     43 C15         6.6680   -0.3760    0.9120 c         1 MOL      0.598410
     44 O9          6.9450    0.7900    0.9770 o         1 MOL     -0.515727
     45 H17         5.8150    0.2760    3.7090 hn        1 MOL      0.297906
     46 H18         4.9760   -1.6270    1.5660 h1        1 MOL      0.073265
     47 H19         6.4750   -1.6480    2.4660 h1        1 MOL      0.073265
     48 N5          7.1240   -1.2570   -0.0170 n         1 MOL     -0.518982
     49 C16         6.7160   -2.6790   -0.1290 c3        1 MOL      0.219432
     50 C17         6.2620   -3.0500   -1.6340 c         1 MOL      0.486118
     51 O10         6.2890   -4.2100   -2.1020 o         1 MOL     -0.502282
     52 C18         7.8730   -3.6280    0.3470 c3        1 MOL     -0.476061
     53 C19         7.5850   -5.0870    0.2660 c         1 MOL      0.708711
     54 N6          8.4780   -5.8680   -0.3120 n         1 MOL     -0.778511
     55 O11         6.6110   -5.6320    0.8720 o         1 MOL     -0.573528
     56 H20         7.6370   -0.8850   -0.8100 hn        1 MOL      0.298801
     57 H21         5.8300   -2.8740    0.4710 h1        1 MOL      0.028280
     58 H22         8.0270   -3.4870    1.4160 hc        1 MOL      0.131143
     59 H23         8.7380   -3.4770   -0.2970 hc        1 MOL      0.131143
     60 H24         9.2400   -5.3960   -0.7850 hn        1 MOL      0.362069
     61 H25         8.4390   -6.8720   -0.3400 hn        1 MOL      0.362069
     62 N7          5.7830   -2.0300   -2.3290 n         1 MOL     -0.291845
     63 C20         5.0290   -2.1560   -3.5300 c3        1 MOL     -0.217822
     64 C21         3.6780   -2.8300   -3.4760 c         1 MOL      0.559736
     65 O12         3.3040   -3.5560   -4.4490 o         1 MOL     -0.548056
     66 H26         5.7400   -1.1270   -1.8760 hn        1 MOL      0.253416
     67 H27         5.6360   -2.7950   -4.1720 h1        1 MOL      0.132626
     68 H28         4.9390   -1.1590   -3.9400 h1        1 MOL      0.132626
     69 N8          2.8890   -2.6650   -2.4160 n         1 MOL     -0.410871
     70 C22         1.8320   -3.5800   -2.0240 c3        1 MOL     -0.084218
     71 C23         0.6480   -2.8420   -1.4470 c         1 MOL      0.509543
     72 O13         0.7850   -1.9010   -0.6050 o         1 MOL     -0.518139
     73 C24         2.3330   -4.6800   -1.0550 c3        1 MOL      0.355494
     74 C25         2.9900   -5.8170   -1.7620 c3        1 MOL     -0.596360
     75 O14         3.2670   -4.1450   -0.1550 oh        1 MOL     -0.563001
     76 H29         3.1430   -2.0150   -1.6800 hn        1 MOL      0.279392
     77 H30         1.3680   -3.9850   -2.9320 h1        1 MOL      0.104773
     78 H31         1.5110   -5.0780   -0.4670 h1        1 MOL      0.053440
     79 H32         3.6970   -4.8700    0.3110 ho        1 MOL      0.374762
     80 H33         3.0920   -6.6570   -1.0790 hc        1 MOL      0.161751
     81 H34         2.2980   -6.2310   -2.5010 hc        1 MOL      0.161751
     82 H35         3.9310   -5.6230   -2.2620 hc        1 MOL      0.161751
     83 N9         -0.5700   -3.3080   -1.8220 n         1 MOL     -0.338232
     84 C26        -1.8630   -2.7100   -1.4040 c3        1 MOL     -0.303090
     85 C27        -2.3400   -3.2470   -0.0840 c         1 MOL      0.523478
     86 O15        -2.2890   -4.4090    0.2150 o         1 MOL     -0.588930
     87 C28        -2.8360   -3.0200   -2.5350 c3        1 MOL      0.301170
     88 C29        -4.3060   -2.6190   -2.1940 c3        1 MOL      0.129735
     89 C30        -2.5430   -2.5080   -3.9820 c3        1 MOL     -0.392920
     90 C31        -5.4170   -3.0500   -3.1720 c3        1 MOL     -0.198093
     91 H36        -0.5560   -4.1800   -2.3330 hn        1 MOL      0.252121
     92 H37        -1.7390   -1.6280   -1.4210 h1        1 MOL      0.219051
     93 H38        -2.9110   -4.1020   -2.5630 hc        1 MOL     -0.031430
     94 H39        -4.4180   -1.5320   -2.1300 hc        1 MOL     -0.047600
     95 H40        -4.6330   -3.0580   -1.2520 hc        1 MOL     -0.047600
     96 H41        -2.3350   -1.4390   -3.9940 hc        1 MOL      0.086974
     97 H42        -1.6170   -2.9790   -4.3080 hc        1 MOL      0.086974
     98 H43        -3.2620   -2.8620   -4.7300 hc        1 MOL      0.086974
     99 H44        -5.2140   -4.0840   -3.4600 hc        1 MOL      0.029859
    100 H45        -6.3750   -2.9220   -2.6610 hc        1 MOL      0.029859
    101 H46        -5.3630   -2.5000   -4.1060 hc        1 MOL      0.029859
    102 N10        -2.8180   -2.3650    0.7150 n         1 MOL     -0.013718
    103 C32        -3.5170   -2.6400    1.9540 c3        1 MOL      0.079005
    104 C33        -5.0530   -2.2240    1.9330 c         1 MOL      0.216324
    105 O16        -5.8810   -2.7620    2.7040 o         1 MOL     -0.491218
    106 C34        -2.7220   -2.1170    3.1450 c3        1 MOL     -0.007223
    107 C35        -1.3300   -2.6620    3.3520 c         1 MOL      0.626001
    108 O17        -1.1490   -3.6580    4.0740 o         1 MOL     -0.679969
    109 O18        -0.4600   -2.0800    2.7010 o         1 MOL     -0.679969
    110 H47        -2.7010   -1.4250    0.3520 hn        1 MOL     -0.046158
    111 H48        -3.6260   -3.7140    2.1200 h1        1 MOL      0.070768
    112 H49        -3.3640   -2.3720    3.9900 hc        1 MOL     -0.037014
    113 H50        -2.6230   -1.0320    3.0290 hc        1 MOL     -0.037014
    114 N11        -5.3930   -1.3160    0.9710 n         1 MOL     -0.193692
    115 C36        -6.7480   -0.7140    0.9700 c3        1 MOL      0.230874
    116 C37        -6.6830    0.7550    0.5750 c         1 MOL      0.235082
    117 O19        -7.2800    1.1040   -0.4220 o         1 MOL     -0.490095
    118 C38        -7.6930   -1.5870    0.1410 c3        1 MOL     -0.570950
    119 C39        -9.1580   -1.2920    0.1210 ca        1 MOL      0.324113
    120 C40        -9.9330   -1.1480   -1.0320 ca        1 MOL     -0.196434
    121 C41        -9.8670   -1.5320    1.2710 ca        1 MOL     -0.196434
    122 C42       -11.3620   -1.0880   -1.0210 ca        1 MOL     -0.128250
    123 C43       -11.2640   -1.4400    1.3310 ca        1 MOL     -0.128250
    124 C44       -12.0640   -1.1840    0.2160 ca        1 MOL     -0.140558
    125 H51        -4.6760   -0.9650    0.3480 hn        1 MOL      0.308350
    126 H52        -7.0790   -0.8040    2.0030 h1        1 MOL      0.042172
    127 H53        -7.5890   -2.5730    0.5920 hc        1 MOL      0.185659
    128 H54        -7.2270   -1.5540   -0.8460 hc        1 MOL      0.185659
    129 H55        -9.4060   -1.1150   -1.9670 ha        1 MOL      0.116962
    130 H56        -9.2850   -1.6440    2.1760 ha        1 MOL      0.116962
    131 H57       -11.8460   -1.1300   -1.9870 ha        1 MOL      0.101241
    132 H58       -11.7710   -1.5080    2.2780 ha        1 MOL      0.101241
    133 H59       -13.1480   -1.1340    0.2800 ha        1 MOL      0.108531
    134 N12        -6.0150    1.6620    1.3280 n         1 MOL      0.013947
    135 C45        -5.9850    3.1130    1.0620 c3        1 MOL      0.009287
    136 C46        -5.2540    3.5940   -0.2260 c         1 MOL      0.247816
    137 O20        -5.4400    4.6930   -0.6540 o         1 MOL     -0.490850
    138 C47        -5.2060    3.7010    2.2350 c3        1 MOL     -0.185936
    139 C48        -5.4220    2.6730    3.3910 c3        1 MOL     -0.125354
    140 C49        -5.2940    1.3640    2.5870 c3        1 MOL     -0.058458
    141 H60        -7.0280    3.4090    1.1590 h1        1 MOL      0.090031
    142 H61        -4.1370    3.7650    2.0520 hc        1 MOL      0.100771
    143 H62        -5.6670    4.6370    2.5510 hc        1 MOL      0.100771
    144 H63        -4.6390    2.7220    4.1510 hc        1 MOL      0.056615
    145 H64        -6.4120    2.8140    3.8210 hc        1 MOL      0.056615
    146 H65        -4.2660    1.1150    2.2820 h1        1 MOL      0.082244
    147 H66        -5.9020    0.6580    3.1600 h1        1 MOL      0.082244
    148 N13        -4.4290    2.7570   -0.8590 n         1 MOL      0.006359
    149 C50        -3.8980    3.0390   -2.2160 c3        1 MOL     -0.298397
    150 C51        -4.9620    2.9330   -3.2970 c         1 MOL      0.610829
    151 O21        -4.9080    3.6660   -4.2490 o         1 MOL     -0.575068
    152 C52        -2.7210    2.0650   -2.5720 c3        1 MOL      0.082103
    153 C53        -1.8260    1.7430   -1.3480 c3        1 MOL      0.069752
    154 C54        -2.3450    0.6800   -0.3860 c         1 MOL      0.454753
    155 O22        -1.5280    0.1370    0.3460 o         1 MOL     -0.545625
    156 O23        -3.5270    0.2110   -0.5620 o         1 MOL     -0.545625
    157 H67        -4.1750    1.8760   -0.4470 hn        1 MOL      0.024994
    158 H68        -3.4490    4.0310   -2.2630 h1        1 MOL      0.147842
    159 H69        -2.0970    2.6180   -3.2670 hc        1 MOL     -0.024370
    160 H70        -3.0490    1.1570   -3.0790 hc        1 MOL     -0.024370
    161 H71        -1.5870    2.6900   -0.8720 hc        1 MOL      0.004373
    162 H72        -0.8430    1.3960   -1.6840 hc        1 MOL      0.004373
    163 N14        -5.9960    2.1000   -3.1110 n         1 MOL     -0.244461
    164 C55        -7.1140    1.9680   -4.1000 c3        1 MOL     -0.128173
    165 H73        -8.0240    2.3940   -3.6780 h1        1 MOL      0.068108
    166 H74        -6.8540    2.4990   -5.0160 h1        1 MOL      0.068108
    167 H75        -7.2780    0.9140   -4.3250 h1        1 MOL      0.068108
    168 H76        -6.0180    1.5520   -2.2620 hn        1 MOL      0.223860
    169 Ca1         0.7900   -0.1280    1.5670 Ca        1 MOL      1.670168
    170 O24         2.1960   -2.4440    1.8540 oh        1 MOL     -0.853636
    171 H77         2.3030   -2.7720    2.7410 ho        1 MOL      0.410296
    172 H78         2.7420   -3.0230    1.3170 ho        1 MOL      0.410296
    173 O25         0.1630    2.5590    1.6580 oh        1 MOL     -0.853636
    174 H79         0.5520    3.2540    1.1110 ho        1 MOL      0.410296
    175 H80        -0.2830    3.0250    2.3610 ho        1 MOL      0.410296
    176 O26         1.6720    1.0660   -0.7320 oh        1 MOL     -0.853636
    177 H81         2.0600    0.5680   -1.4470 ho        1 MOL      0.410296
    178 H82         2.1120    1.9180   -0.7710 ho        1 MOL      0.410296
@<TRIPOS>BOND
     1    1    2 1   
     2    1    4 1   
     3    1    5 1   
     4    1    6 1   
     5    2    3 2   
     6    2    7 1   
     7    7    8 1   
     8    7   15 1   
     9    8    9 1   
    10    8   11 1   
    11    8   16 1   
    12    9   10 2   
    13    9   19 1   
    14   11   12 1   
    15   11   17 1   
    16   11   18 1   
    17   12   13 1   
    18   12   14 1   
    19   19   20 1   
    20   19   24 1   
    21   20   21 1   
    22   20   23 1   
    23   20   25 1   
    24   21   22 2   
    25   21   29 1   
    26   23   26 1   
    27   23   27 1   
    28   23   28 1   
    29   29   30 1   
    30   29   37 1   
    31   30   31 1   
    32   30   33 1   
    33   30   38 1   
    34   31   32 2   
    35   31   41 1   
    36   33   34 1   
    37   33   39 1   
    38   33   40 1   
    39   34   35 1   
    40   34   36 1   
    41   41   42 1   
    42   41   45 1   
    43   42   43 1   
    44   42   46 1   
    45   42   47 1   
    46   43   44 2   
    47   43   48 1   
    48   48   49 1   
    49   48   56 1   
    50   49   50 1   
    51   49   52 1   
    52   49   57 1   
    53   50   51 2   
    54   50   62 1   
    55   52   53 1   
    56   52   58 1   
    57   52   59 1   
    58   53   54 1   
    59   53   55 2   
    60   54   60 1   
    61   54   61 1   
    62   62   63 1   
    63   62   66 1   
    64   63   64 1   
    65   63   67 1   
    66   63   68 1   
    67   64   65 2   
    68   64   69 1   
    69   69   70 1   
    70   69   76 1   
    71   70   71 1   
    72   70   73 1   
    73   70   77 1   
    74   71   72 2   
    75   71   83 1   
    76   73   74 1   
    77   73   75 1   
    78   73   78 1   
    79   74   80 1   
    80   74   81 1   
    81   74   82 1   
    82   75   79 1   
    83   83   84 1   
    84   83   91 1   
    85   84   85 1   
    86   84   87 1   
    87   84   92 1   
    88   85   86 2   
    89   85  102 1   
    90   87   88 1   
    91   87   89 1   
    92   87   93 1   
    93   88   90 1   
    94   88   94 1   
    95   88   95 1   
    96   89   96 1   
    97   89   97 1   
    98   89   98 1   
    99   90   99 1   
   100   90  100 1   
   101   90  101 1   
   102  102  103 1   
   103  102  110 1   
   104  103  104 1   
   105  103  106 1   
   106  103  111 1   
   107  104  105 2   
   108  104  114 1   
   109  106  107 1   
   110  106  112 1   
   111  106  113 1   
   112  107  108 1   
   113  107  109 1   
   114  114  115 1   
   115  114  125 1   
   116  115  116 1   
   117  115  118 1   
   118  115  126 1   
   119  116  117 2   
   120  116  134 1   
   121  118  119 1   
   122  118  127 1   
   123  118  128 1   
   124  119  120 ar  
   125  119  121 ar  
   126  120  122 ar  
   127  120  129 1   
   128  121  123 ar  
   129  121  130 1   
   130  122  124 ar  
   131  122  131 1   
   132  123  124 ar  
   133  123  132 1   
   134  124  133 1   
   135  134  135 1   
   136  134  140 1   
   137  135  136 1   
   138  135  138 1   
   139  135  141 1   
   140  136  137 2   
   141  136  148 1   
   142  138  139 1   
   143  138  142 1   
   144  138  143 1   
   145  139  140 1   
   146  139  144 1   
   147  139  145 1   
   148  140  146 1   
   149  140  147 1   
   150  148  149 1   
   151  148  157 1   
   152  149  150 1   
   153  149  152 1   
   154  149  158 1   
   155  150  151 2   
   156  150  163 1   
   157  152  153 1   
   158  152  159 1   
   159  152  160 1   
   160  153  154 1   
   161  153  161 1   
   162  153  162 1   
   163  154  155 1   
   164  154  156 1   
   165  163  164 1   
   166  163  168 1   
   167  164  165 1   
   168  164  166 1   
   169  164  167 1   
   170  170  171 1   
   171  170  172 1   
   172  173  174 1   
   173  173  175 1   
   174  176  177 1   
   175  176  178 1   
@<TRIPOS>SUBSTRUCTURE
     1 MOL         1 TEMP              0 ****  ****    0 ROOT
