@<TRIPOS>MOLECULE
MOL
  184   179     1     0     0
SMALL
resp


@<TRIPOS>ATOM
      1 C1          2.3640    6.8750   -1.1790 c3        1 MOL     -0.365161
      2 C2          3.7320    6.4650   -0.7180 c         1 MOL      0.739379
      3 O1          4.1310    6.9060    0.3400 o         1 MOL     -0.583622
      4 H1          1.9600    7.6240   -0.4970 hc        1 MOL      0.090217
      5 H2          2.4300    7.2960   -2.1820 hc        1 MOL      0.090217
      6 H3          1.7080    6.0050   -1.1920 hc        1 MOL      0.090217
      7 N1          4.5670    5.7360   -1.4860 n         1 MOL     -0.719353
      8 C3          5.9130    5.3490   -0.9770 c3        1 MOL      0.415788
      9 C4          5.9360    4.0050   -0.2640 c         1 MOL      0.475658
     10 O2          6.4370    2.9700   -0.7620 o         1 MOL     -0.546772
     11 C5          6.9600    5.4250   -2.0820 c3        1 MOL     -0.261447
     12 C6          7.0900    6.7450   -2.8470 c         1 MOL      0.680949
     13 O3          7.9310    6.7820   -3.7710 o         1 MOL     -0.717573
     14 O4          6.6390    7.8590   -2.4360 o         1 MOL     -0.717573
     15 H4          4.2580    5.3570   -2.3720 hn        1 MOL      0.338957
     16 H5          6.1880    6.1340   -0.2730 h1        1 MOL      0.023701
     17 H6          6.7540    4.6180   -2.7840 hc        1 MOL      0.028569
     18 H7          7.9170    5.2290   -1.6040 hc        1 MOL      0.028569
     19 N2          5.5330    4.1280    0.9740 n         1 MOL     -0.686925
     20 C7          5.7840    3.1790    2.0460 c3        1 MOL      0.681212
     21 C8          4.6160    2.8650    3.0210 c         1 MOL      0.330696
     22 O5          3.7250    3.7090    3.1810 o         1 MOL     -0.508165
     23 C9          7.0810    3.7060    2.7340 c3        1 MOL     -0.436455
     24 H8          5.1370    5.0190    1.2380 hn        1 MOL      0.282606
     25 H9          6.0320    2.2670    1.5020 h1        1 MOL     -0.115426
     26 H10         7.4020    3.0910    3.5760 hc        1 MOL      0.104393
     27 H11         7.9260    3.6710    2.0480 hc        1 MOL      0.104393
     28 H12         6.9100    4.7030    3.1220 hc        1 MOL      0.104393
     29 N3          4.5410    1.6650    3.5830 n         1 MOL     -0.341294
     30 C10         5.5240    0.5440    3.6080 c3        1 MOL     -0.116131
     31 C11         5.6130   -0.2530    2.3180 c         1 MOL      0.426361
     32 O6          4.5480   -0.5870    1.7820 o         1 MOL     -0.435417
     33 C12         5.2110   -0.2340    4.9250 c3        1 MOL     -0.159974
     34 C13         3.8150   -0.6640    5.1640 c         1 MOL      0.709245
     35 O7          3.4910   -1.8730    5.0170 o         1 MOL     -0.686897
     36 O8          2.8330    0.1840    5.2670 o         1 MOL     -0.686897
     37 H13         3.7850    1.4200    4.2060 hn        1 MOL      0.234675
     38 H14         6.5400    0.9050    3.7210 h1        1 MOL      0.082208
     39 H15         5.4490    0.3300    5.8280 hc        1 MOL      0.051424
     40 H16         5.9470   -1.0390    4.9510 hc        1 MOL      0.051424
     41 N4          6.7540   -0.7060    1.8260 n         1 MOL     -0.097051
     42 C14         6.8750   -1.7780    0.8610 c3        1 MOL     -0.268738
     43 C15         8.1810   -1.6820   -0.0440 c         1 MOL      0.683995
     44 O9          9.1780   -1.1150    0.3730 o         1 MOL     -0.541868
     45 H17         7.5630   -0.2570    2.2330 hn        1 MOL      0.194225
     46 H18         6.1050   -1.5200    0.1350 h1        1 MOL      0.087717
     47 H19         6.7210   -2.8060    1.1840 h1        1 MOL      0.087717
     48 N5          8.2730   -2.3100   -1.2230 n         1 MOL     -0.646905
     49 C16         7.2590   -3.2570   -1.6830 c3        1 MOL      0.144667
     50 C17         5.9890   -2.4610   -2.3000 c         1 MOL      0.628141
     51 O10         5.9110   -1.2410   -2.4370 o         1 MOL     -0.468470
     52 C18         7.9260   -4.0940   -2.8090 c3        1 MOL     -0.624440
     53 C19         9.3010   -4.7360   -2.4190 c         1 MOL      0.843992
     54 N6          9.4150   -5.6500   -1.4550 n         1 MOL     -0.891022
     55 O11        10.4000   -4.4360   -2.9390 o         1 MOL     -0.573752
     56 H20         9.0650   -1.9950   -1.7640 hn        1 MOL      0.394370
     57 H21         6.9380   -3.8810   -0.8530 h1        1 MOL      0.024142
     58 H22         7.9730   -3.4580   -3.6990 hc        1 MOL      0.183410
     59 H23         7.3440   -5.0090   -2.8890 hc        1 MOL      0.183410
     60 H24         8.6440   -5.5910   -0.8110 hn        1 MOL      0.399091
     61 H25        10.3180   -6.0210   -1.1890 hn        1 MOL      0.399091
     62 N7          4.9290   -3.2020   -2.5520 n         1 MOL     -0.378598
     63 C20         3.5720   -2.7370   -2.9650 c3        1 MOL     -0.447806
     64 C21         2.5490   -3.8440   -2.8300 c         1 MOL      0.703006
     65 O12         2.6050   -4.7940   -3.5500 o         1 MOL     -0.533908
     66 H26         4.9930   -4.1530   -2.2170 hn        1 MOL      0.253119
     67 H27         3.5330   -2.4830   -4.0250 h1        1 MOL      0.197281
     68 H28         3.1950   -1.9900   -2.2700 h1        1 MOL      0.197281
     69 N8          1.5560   -3.5130   -1.9110 n         1 MOL     -0.488085
     70 C22         0.2420   -4.1840   -1.6910 c3        1 MOL     -0.036418
     71 C23        -0.8600   -3.1300   -1.6200 c         1 MOL      0.445581
     72 O13        -0.7020   -2.0600   -1.0010 o         1 MOL     -0.546676
     73 C24         0.2740   -4.9500   -0.3740 c3        1 MOL      0.238912
     74 C25         1.3220   -6.0680   -0.3160 c3        1 MOL     -0.318827
     75 O14         0.6050   -4.0310    0.6860 oh        1 MOL     -0.607109
     76 H29         1.7690   -2.7280   -1.3140 hn        1 MOL      0.307535
     77 H30        -0.0600   -4.8350   -2.5130 h1        1 MOL      0.090117
     78 H31        -0.6950   -5.3630   -0.1170 h1        1 MOL      0.078534
     79 H32         0.5210   -4.4900    1.5220 ho        1 MOL      0.380517
     80 H33         2.3670   -5.7940   -0.4270 hc        1 MOL      0.086824
     81 H34         1.2250   -6.5180    0.6690 hc        1 MOL      0.086824
     82 H35         1.0560   -6.8380   -1.0430 hc        1 MOL      0.086824
     83 N9         -2.0340   -3.5380   -2.0940 n         1 MOL     -0.250170
     84 C26        -3.3020   -2.8510   -1.9020 c3        1 MOL     -0.226095
     85 C27        -3.9550   -3.3240   -0.5890 c         1 MOL      0.393533
     86 O15        -4.4080   -4.4700   -0.5260 o         1 MOL     -0.555853
     87 C28        -4.2000   -3.1300   -3.1160 c3        1 MOL      0.165533
     88 C29        -5.6040   -2.5410   -3.0930 c3        1 MOL     -0.297826
     89 C30        -3.4090   -2.5740   -4.3110 c3        1 MOL     -0.061694
     90 C31        -5.7380   -1.0960   -2.7610 c3        1 MOL      0.086456
     91 H36        -2.0620   -4.5190   -2.3450 hn        1 MOL      0.258827
     92 H37        -3.1690   -1.7810   -1.7840 h1        1 MOL      0.270171
     93 H38        -4.2080   -4.2040   -3.2880 hc        1 MOL      0.026047
     94 H39        -6.2300   -2.9500   -2.2960 hc        1 MOL      0.084348
     95 H40        -6.2080   -2.7680   -3.9730 hc        1 MOL      0.084348
     96 H41        -4.1300   -2.5110   -5.1210 hc        1 MOL      0.002391
     97 H42        -2.9370   -1.6170   -4.0880 hc        1 MOL      0.002391
     98 H43        -2.6440   -3.2860   -4.6260 hc        1 MOL      0.002391
     99 H44        -6.7820   -0.8540   -2.5630 hc        1 MOL      0.005512
    100 H45        -5.2850   -0.9350   -1.7780 hc        1 MOL      0.005512
    101 H46        -5.2860   -0.5020   -3.5540 hc        1 MOL      0.005512
    102 N10        -4.1550   -2.4010    0.3250 n         1 MOL     -0.025582
    103 C32        -4.8850   -2.7070    1.5740 c3        1 MOL      0.000172
    104 C33        -6.1120   -1.8970    1.7540 c         1 MOL      0.348858
    105 O16        -6.9020   -2.1890    2.6360 o         1 MOL     -0.518418
    106 C34        -3.9220   -2.4100    2.7600 c3        1 MOL      0.085955
    107 C35        -2.6740   -3.2890    2.7100 c         1 MOL      0.637831
    108 O17        -2.7910   -4.4380    3.2110 o         1 MOL     -0.684763
    109 O18        -1.6310   -2.7890    2.2030 o         1 MOL     -0.684763
    110 H47        -3.7440   -1.4870    0.2550 hn        1 MOL     -0.047799
    111 H48        -5.1490   -3.7640    1.5650 h1        1 MOL      0.111516
    112 H49        -4.4770   -2.5650    3.6800 hc        1 MOL     -0.025414
    113 H50        -3.6010   -1.3680    2.7130 hc        1 MOL     -0.025414
    114 N11        -6.3480   -0.8920    0.8640 n         1 MOL     -0.078738
    115 C36        -7.4980    0.0060    1.0110 c3        1 MOL      0.396205
    116 C37        -6.9680    1.4150    0.6750 c         1 MOL      0.159916
    117 O19        -7.4180    2.0220   -0.3490 o         1 MOL     -0.445145
    118 C38        -8.6340   -0.5000    0.1140 c3        1 MOL     -0.604293
    119 C39        -9.9580    0.1140    0.2390 ca        1 MOL      0.347993
    120 C40       -10.5110    0.4350    1.4640 ca        1 MOL     -0.243944
    121 C41       -10.7150    0.2710   -0.9140 ca        1 MOL     -0.243944
    122 C42       -11.7840    0.9790    1.5870 ca        1 MOL     -0.071658
    123 C43       -12.0520    0.7230   -0.8660 ca        1 MOL     -0.071658
    124 C44       -12.5820    1.0600    0.3830 ca        1 MOL     -0.201326
    125 H51        -5.8230   -0.7420    0.0040 hn        1 MOL     -0.177184
    126 H52        -7.7360    0.0770    2.0710 h1        1 MOL     -0.014369
    127 H53        -8.7370   -1.5350    0.4330 hc        1 MOL      0.203527
    128 H54        -8.2810   -0.4270   -0.9160 hc        1 MOL      0.203527
    129 H55        -9.9020    0.3430    2.3460 ha        1 MOL      0.130468
    130 H56       -10.2240    0.0110   -1.8430 ha        1 MOL      0.130468
    131 H57       -12.3230    1.1470    2.4980 ha        1 MOL      0.103962
    132 H58       -12.6850    0.8030   -1.7420 ha        1 MOL      0.103962
    133 H59       -13.5320    1.5440    0.5640 ha        1 MOL      0.114981
    134 N12        -5.9510    2.0090    1.4180 n         1 MOL      0.039971
    135 C45        -5.5560    3.3950    1.1400 c3        1 MOL     -0.045457
    136 C46        -5.0770    3.6730   -0.2690 c         1 MOL      0.188514
    137 O20        -5.1510    4.8150   -0.7380 o         1 MOL     -0.485161
    138 C47        -4.4440    3.5740    2.1820 c3        1 MOL     -0.078822
    139 C48        -4.7570    2.7130    3.4070 c3        1 MOL     -0.144527
    140 C49        -5.2870    1.4960    2.6220 c3        1 MOL     -0.015341
    141 H60        -6.4130    3.9970    1.4280 h1        1 MOL      0.105723
    142 H61        -3.4700    3.1390    1.9430 hc        1 MOL      0.073213
    143 H62        -4.2340    4.6190    2.4140 hc        1 MOL      0.073213
    144 H63        -3.8890    2.5190    4.0430 hc        1 MOL      0.052833
    145 H64        -5.6360    3.1320    3.9000 hc        1 MOL      0.052833
    146 H65        -4.4450    0.8510    2.3790 h1        1 MOL      0.068900
    147 H66        -5.8540    0.8900    3.3320 h1        1 MOL      0.068900
    148 N13        -4.5850    2.7110   -1.0240 n         1 MOL      0.092618
    149 C50        -4.0650    2.9580   -2.4020 c3        1 MOL     -0.066700
    150 C51        -5.1320    3.0280   -3.4490 c         1 MOL      0.423175
    151 O21        -5.1860    3.9890   -4.1710 o         1 MOL     -0.504441
    152 C52        -2.9930    1.8920   -2.6920 c3        1 MOL     -0.022527
    153 C53        -1.8840    1.6320   -1.6020 c3        1 MOL      0.096816
    154 C54        -2.2420    0.8060   -0.3860 c         1 MOL      0.670096
    155 O22        -1.3650    0.7330    0.5260 o         1 MOL     -0.701574
    156 O23        -3.3710    0.2650   -0.3530 o         1 MOL     -0.701574
    157 H67        -4.4370    1.7920   -0.6190 hn        1 MOL      0.139980
    158 H68        -3.5600    3.9230   -2.3940 h1        1 MOL      0.081668
    159 H69        -2.5320    2.1160   -3.6490 hc        1 MOL     -0.002091
    160 H70        -3.5570    0.9720   -2.8600 hc        1 MOL     -0.002091
    161 H71        -1.5200    2.6040   -1.2660 hc        1 MOL     -0.036479
    162 H72        -1.0910    1.0810   -2.1120 hc        1 MOL     -0.036479
    163 N14        -6.2400    2.2390   -3.2840 n         1 MOL     -0.153192
    164 C55        -7.4920    2.4420   -4.0540 c3        1 MOL     -0.172810
    165 H73        -8.0650    3.2530   -3.6080 h1        1 MOL      0.076710
    166 H74        -7.2470    2.6950   -5.0860 h1        1 MOL      0.076710
    167 H75        -8.0830    1.5260   -4.0350 h1        1 MOL      0.076710
    168 H76        -6.2770    1.5540   -2.5410 hn        1 MOL      0.149996
    169 Ca1         0.0680   -1.2510    1.3500 Ca        1 MOL      1.780348
    170 O24         1.9930    0.2010    2.4790 oh        1 MOL     -0.875004
    171 H77         2.3230    0.2990    3.3730 ho        1 MOL      0.422228
    172 H78         2.7480    0.3680    1.9190 ho        1 MOL      0.422228
    173 O25         1.3310   -2.5940    3.3330 oh        1 MOL     -0.875004
    174 H79         2.0900   -2.2800    3.8170 ho        1 MOL      0.422228
    175 H80         0.6220   -2.6090    3.9820 ho        1 MOL      0.422228
    176 O26         2.8090   -1.9250    0.4150 oh        1 MOL     -0.875004
    177 H81         3.5780   -1.4090    0.6250 ho        1 MOL      0.422228
    178 H82         3.0360   -2.8220    0.6740 ho        1 MOL      0.422228
    179 O27         1.6910    0.8400   -0.4520 oh        1 MOL     -0.875004
    180 H83         2.6400    0.8720   -0.5550 ho        1 MOL      0.422228
    181 H84         1.3920    1.6930   -0.7530 ho        1 MOL      0.422228
    182 O28        -0.4970   -0.3500    3.7540 oh        1 MOL     -0.875004
    183 H85        -0.5950   -0.5290    4.6940 ho        1 MOL      0.422228
    184 H86        -0.0940    0.5170    3.7170 ho        1 MOL      0.422228
@<TRIPOS>BOND
     1    1    2 1   
     2    1    4 1   
     3    1    5 1   
     4    1    6 1   
     5    2    3 2   
     6    2    7 1   
     7    7    8 1   
     8    7   15 1   
     9    8    9 1   
    10    8   11 1   
    11    8   16 1   
    12    9   10 2   
    13    9   19 1   
    14   11   12 1   
    15   11   17 1   
    16   11   18 1   
    17   12   13 1   
    18   12   14 1   
    19   19   20 1   
    20   19   24 1   
    21   20   21 1   
    22   20   23 1   
    23   20   25 1   
    24   21   22 2   
    25   21   29 1   
    26   23   26 1   
    27   23   27 1   
    28   23   28 1   
    29   29   30 1   
    30   29   37 1   
    31   30   31 1   
    32   30   33 1   
    33   30   38 1   
    34   31   32 2   
    35   31   41 1   
    36   33   34 1   
    37   33   39 1   
    38   33   40 1   
    39   34   35 1   
    40   34   36 1   
    41   41   42 1   
    42   41   45 1   
    43   42   43 1   
    44   42   46 1   
    45   42   47 1   
    46   43   44 2   
    47   43   48 1   
    48   48   49 1   
    49   48   56 1   
    50   49   50 1   
    51   49   52 1   
    52   49   57 1   
    53   50   51 2   
    54   50   62 1   
    55   52   53 1   
    56   52   58 1   
    57   52   59 1   
    58   53   54 1   
    59   53   55 2   
    60   54   60 1   
    61   54   61 1   
    62   62   63 1   
    63   62   66 1   
    64   63   64 1   
    65   63   67 1   
    66   63   68 1   
    67   64   65 2   
    68   64   69 1   
    69   69   70 1   
    70   69   76 1   
    71   70   71 1   
    72   70   73 1   
    73   70   77 1   
    74   71   72 2   
    75   71   83 1   
    76   73   74 1   
    77   73   75 1   
    78   73   78 1   
    79   74   80 1   
    80   74   81 1   
    81   74   82 1   
    82   75   79 1   
    83   83   84 1   
    84   83   91 1   
    85   84   85 1   
    86   84   87 1   
    87   84   92 1   
    88   85   86 2   
    89   85  102 1   
    90   87   88 1   
    91   87   89 1   
    92   87   93 1   
    93   88   90 1   
    94   88   94 1   
    95   88   95 1   
    96   89   96 1   
    97   89   97 1   
    98   89   98 1   
    99   90   99 1   
   100   90  100 1   
   101   90  101 1   
   102  102  103 1   
   103  102  110 1   
   104  103  104 1   
   105  103  106 1   
   106  103  111 1   
   107  104  105 2   
   108  104  114 1   
   109  106  107 1   
   110  106  112 1   
   111  106  113 1   
   112  107  108 1   
   113  107  109 1   
   114  114  115 1   
   115  114  125 1   
   116  115  116 1   
   117  115  118 1   
   118  115  126 1   
   119  116  117 2   
   120  116  134 1   
   121  118  119 1   
   122  118  127 1   
   123  118  128 1   
   124  119  120 ar  
   125  119  121 ar  
   126  120  122 ar  
   127  120  129 1   
   128  121  123 ar  
   129  121  130 1   
   130  122  124 ar  
   131  122  131 1   
   132  123  124 ar  
   133  123  132 1   
   134  124  133 1   
   135  134  135 1   
   136  134  140 1   
   137  135  136 1   
   138  135  138 1   
   139  135  141 1   
   140  136  137 2   
   141  136  148 1   
   142  138  139 1   
   143  138  142 1   
   144  138  143 1   
   145  139  140 1   
   146  139  144 1   
   147  139  145 1   
   148  140  146 1   
   149  140  147 1   
   150  148  149 1   
   151  148  157 1   
   152  149  150 1   
   153  149  152 1   
   154  149  158 1   
   155  150  151 2   
   156  150  163 1   
   157  152  153 1   
   158  152  159 1   
   159  152  160 1   
   160  153  154 1   
   161  153  161 1   
   162  153  162 1   
   163  154  155 1   
   164  154  156 1   
   165  163  164 1   
   166  163  168 1   
   167  164  165 1   
   168  164  166 1   
   169  164  167 1   
   170  170  171 1   
   171  170  172 1   
   172  173  174 1   
   173  173  175 1   
   174  176  177 1   
   175  176  178 1   
   176  179  180 1   
   177  179  181 1   
   178  182  183 1   
   179  182  184 1   
@<TRIPOS>SUBSTRUCTURE
     1 MOL         1 TEMP              0 ****  ****    0 ROOT
