@<TRIPOS>MOLECULE
MOL
  198   191     1     0     0
SMALL
resp


@<TRIPOS>ATOM
      1 C1          1.3230    4.2770    2.5210 c3        1 MOL     -0.458982
      2 C2          0.2520    4.1680    1.4460 c         1 MOL      0.731799
      3 O1         -0.7510    3.4220    1.5010 o         1 MOL     -0.596557
      4 H1          1.2910    5.2720    2.9650 hc        1 MOL      0.098423
      5 H2          1.1420    3.5290    3.2930 hc        1 MOL      0.098423
      6 H3          2.3040    4.1100    2.0760 hc        1 MOL      0.098423
      7 N1          0.3270    5.0590    0.4650 n         1 MOL     -0.490249
      8 C3         -0.4780    5.1390   -0.7620 c3        1 MOL      0.044702
      9 C4         -2.0240    5.1900   -0.5840 c         1 MOL      0.898440
     10 O2         -2.7140    4.6000   -1.3820 o         1 MOL     -0.615551
     11 C5          0.1600    4.1580   -1.7130 c3        1 MOL     -0.462759
     12 C6          1.6140    4.3050   -2.1630 c         1 MOL      0.762610
     13 O3          2.1550    3.2850   -2.6290 o         1 MOL     -0.671120
     14 O4          2.1110    5.4300   -2.2300 o         1 MOL     -0.671120
     15 H4          1.1850    5.5870    0.4100 hn        1 MOL      0.258660
     16 H5         -0.2580    6.1540   -1.0960 h1        1 MOL      0.028009
     17 H6         -0.4210    4.1170   -2.6380 hc        1 MOL      0.115503
     18 H7          0.0800    3.1230   -1.3820 hc        1 MOL      0.115503
     19 N2         -2.5350    5.8340    0.4720 n         1 MOL     -0.638627
     20 C7         -3.9780    5.7240    0.8510 c3        1 MOL     -0.213744
     21 C8         -4.7460    6.6040   -0.1030 c         1 MOL      0.458071
     22 O5         -4.2230    7.6580   -0.5530 o         1 MOL     -0.559412
     23 C9         -4.1380    6.0030    2.3960 c3        1 MOL      0.186155
     24 C10        -3.8560    7.4890    2.6230 c3        1 MOL      0.314338
     25 C11        -3.3200    5.0810    3.2820 c3        1 MOL     -0.384196
     26 C12        -4.0720    7.8970    4.0240 c3        1 MOL     -0.110888
     27 H8         -1.8680    6.1200    1.1700 hn        1 MOL      0.273278
     28 H9         -4.1920    4.6560    0.7850 h1        1 MOL      0.203967
     29 H10        -5.1950    5.8210    2.5580 hc        1 MOL      0.038701
     30 H11        -4.4340    8.1470    1.9790 hc        1 MOL     -0.049432
     31 H12        -2.8010    7.6570    2.3980 hc        1 MOL     -0.049432
     32 H13        -2.2580    5.3300    3.2610 hc        1 MOL      0.098319
     33 H14        -3.6890    5.2150    4.2960 hc        1 MOL      0.098319
     34 H15        -3.3930    4.0350    2.9740 hc        1 MOL      0.098319
     35 H16        -3.8030    8.9550    4.0600 hc        1 MOL     -0.016300
     36 H17        -5.0890    7.6730    4.3220 hc        1 MOL     -0.016300
     37 H18        -3.3110    7.4240    4.6590 hc        1 MOL     -0.016300
     38 N3         -5.9750    6.2440   -0.5220 n         1 MOL     -0.329262
     39 C13        -6.8020    5.0700   -0.1660 c3        1 MOL     -0.048142
     40 C14        -6.2940    3.7040   -0.6490 c         1 MOL      0.470727
     41 O6         -6.4580    2.6930    0.0010 o         1 MOL     -0.534865
     42 C15        -8.1980    5.2400   -0.8090 c3        1 MOL     -0.101685
     43 C16        -8.9500    6.5080   -0.4150 c         1 MOL      0.701810
     44 O7         -8.5950    7.1210    0.6030 o         1 MOL     -0.668271
     45 O8         -9.8820    6.8810   -1.0930 o         1 MOL     -0.668271
     46 H19        -6.3290    6.7870   -1.2940 hn        1 MOL      0.282399
     47 H20        -6.9020    5.0230    0.9160 h1        1 MOL      0.065141
     48 H21        -8.8210    4.3700   -0.5690 hc        1 MOL      0.032003
     49 H22        -8.1720    5.2180   -1.9030 hc        1 MOL      0.032003
     50 N4         -5.6900    3.7040   -1.8660 n         1 MOL     -0.298758
     51 C17        -5.1310    2.5820   -2.5550 c3        1 MOL     -0.098452
     52 C18        -6.0680    1.4280   -2.8530 c         1 MOL      0.452293
     53 O9         -7.2550    1.6180   -2.8080 o         1 MOL     -0.482007
     54 H23        -5.5710    4.6200   -2.2850 hn        1 MOL      0.259395
     55 H24        -4.1700    2.2940   -2.1390 h1        1 MOL      0.085188
     56 H25        -4.8180    2.9190   -3.5440 h1        1 MOL      0.085188
     57 N5         -5.3710    0.2520   -3.0490 n         1 MOL     -0.456027
     58 C19        -6.0080   -1.0380   -3.4720 c3        1 MOL      0.135396
     59 C20        -6.9170   -1.5710   -2.3240 c         1 MOL      0.342606
     60 O10        -7.9330   -2.1640   -2.6100 o         1 MOL     -0.541921
     61 C21        -4.9580   -2.0530   -3.9210 c3        1 MOL     -0.120826
     62 C22        -3.8370   -2.3950   -2.9470 c         1 MOL      0.698325
     63 O11        -4.1740   -2.8700   -1.8550 o         1 MOL     -0.678744
     64 O12        -2.7060   -2.0140   -3.3120 o         1 MOL     -0.678744
     65 H26        -4.3560    0.3200   -3.1100 hn        1 MOL      0.270852
     66 H27        -6.5790   -0.9580   -4.3880 h1        1 MOL      0.058895
     67 H28        -4.6100   -1.8210   -4.9290 hc        1 MOL     -0.002569
     68 H29        -5.5110   -2.9850   -4.0460 hc        1 MOL     -0.002569
     69 N6         -6.6270   -1.2090   -1.0290 n         1 MOL     -0.011094
     70 C23        -7.4780   -1.5870    0.0940 c3        1 MOL     -0.339048
     71 C24        -7.1530   -2.9680    0.6130 c         1 MOL      0.457188
     72 O13        -7.8330   -3.4690    1.5100 o         1 MOL     -0.559533
     73 H30        -5.7280   -0.7760   -0.8660 hn        1 MOL      0.190600
     74 H31        -8.4930   -1.5900   -0.2950 h1        1 MOL      0.153321
     75 H32        -7.4160   -0.8420    0.8860 h1        1 MOL      0.153321
     76 N7         -6.0830   -3.6170    0.0690 n         1 MOL     -0.017600
     77 C25        -5.6000   -4.8810    0.4890 c3        1 MOL      0.143047
     78 C26        -5.1480   -4.9720    1.9550 c         1 MOL      0.239330
     79 O14        -5.3850   -6.0500    2.5790 o         1 MOL     -0.516286
     80 C27        -6.5460   -6.0260    0.0400 c3        1 MOL      0.014310
     81 C28        -6.8990   -6.0390   -1.4810 c3        1 MOL     -0.251879
     82 C29        -7.3800   -7.3730   -2.0220 c         1 MOL      0.700728
     83 N8         -8.2120   -7.3140   -2.9920 n         1 MOL     -0.782006
     84 O15        -7.0880   -8.4730   -1.5640 o         1 MOL     -0.595696
     85 H33        -5.5470   -3.1090   -0.6170 hn        1 MOL      0.015340
     86 H34        -4.6890   -4.9200   -0.1060 h1        1 MOL      0.047375
     87 H35        -7.4810   -5.8950    0.5770 hc        1 MOL      0.015589
     88 H36        -6.1730   -7.0240    0.2630 hc        1 MOL      0.015589
     89 H37        -5.9290   -5.8320   -1.9310 hc        1 MOL      0.075146
     90 H38        -7.6190   -5.2410   -1.6230 hc        1 MOL      0.075146
     91 H39        -8.5280   -6.4030   -3.3100 hn        1 MOL      0.343167
     92 H40        -8.7130   -8.1620   -3.2260 hn        1 MOL      0.343167
     93 N9         -4.5710   -3.8670    2.4390 n         1 MOL     -0.070843
     94 C30        -4.0180   -3.7310    3.8190 c3        1 MOL     -0.058766
     95 C31        -2.5050   -3.4350    3.8900 c         1 MOL      0.378408
     96 O16        -1.9170   -3.3700    4.9980 o         1 MOL     -0.548071
     97 C32        -4.7520   -2.5910    4.5750 c3        1 MOL      0.396936
     98 C33        -4.7390   -1.1990    3.7880 c3        1 MOL     -0.352757
     99 C34        -6.1190   -3.0010    5.1420 c3        1 MOL     -0.352757
    100 H41        -4.4390   -3.1270    1.7700 hn        1 MOL      0.183379
    101 H42        -4.2050   -4.6440    4.3840 h1        1 MOL      0.078795
    102 H43        -4.2560   -2.4950    5.5360 hc        1 MOL     -0.054412
    103 H44        -5.2550   -0.5470    4.4950 hc        1 MOL      0.071504
    104 H45        -3.7560   -0.8630    3.4370 hc        1 MOL      0.071504
    105 H46        -5.3260   -1.3400    2.8880 hc        1 MOL      0.071504
    106 H47        -6.5010   -2.0530    5.5190 hc        1 MOL      0.071504
    107 H48        -6.8010   -3.2790    4.3430 hc        1 MOL      0.071504
    108 H49        -6.0040   -3.7280    5.9490 hc        1 MOL      0.071504
    109 N10        -1.9710   -3.2270    2.7110 n         1 MOL     -0.261025
    110 C35        -0.6120   -2.6720    2.5550 c3        1 MOL      0.188080
    111 C36        -0.0690   -3.1980    1.1870 c         1 MOL      0.376546
    112 O17        -0.8530   -3.4730    0.2710 o         1 MOL     -0.446486
    113 C37        -0.6850   -1.1570    2.6660 c3        1 MOL     -0.308281
    114 C38         0.6880   -0.5700    2.2560 c         1 MOL      0.614995
    115 N11         0.7580    0.0460    1.0930 n         1 MOL     -0.711769
    116 O18         1.6440   -0.6780    2.9880 o         1 MOL     -0.577945
    117 H50        -2.4750   -3.5010    1.8800 hn        1 MOL      0.140261
    118 H51        -0.0460   -3.0840    3.3850 h1        1 MOL      0.054222
    119 H52        -0.8490   -0.8950    3.7170 hc        1 MOL      0.123708
    120 H53        -1.4470   -0.6480    2.0920 hc        1 MOL      0.123708
    121 H54        -0.0650    0.1650    0.5270 hn        1 MOL      0.356980
    122 H55         1.6410    0.4750    0.8390 hn        1 MOL      0.356980
    123 N12         1.2580   -3.1830    1.0370 n         1 MOL     -0.376029
    124 C39         2.1030   -3.4170   -0.1350 c3        1 MOL      0.045229
    125 C40         3.5220   -3.7560    0.3850 c         1 MOL      0.549693
    126 O19         4.0400   -3.3070    1.3780 o         1 MOL     -0.565239
    127 C41         2.2230   -2.1310   -0.8970 c3        1 MOL     -0.051086
    128 C42         3.0570   -2.0720   -2.1460 ca        1 MOL     -0.048708
    129 C43         2.7690   -2.9040   -3.2780 ca        1 MOL     -0.106570
    130 C44         4.1360   -1.1820   -2.1920 ca        1 MOL     -0.106570
    131 C45         3.5460   -2.8490   -4.4420 ca        1 MOL     -0.221880
    132 C46         5.0210   -1.2340   -3.2860 ca        1 MOL     -0.221880
    133 C47         4.7000   -2.0070   -4.3890 ca        1 MOL      0.322088
    134 O20         5.4800   -1.7380   -5.4530 oh        1 MOL     -0.484465
    135 H56         1.7830   -3.0750    1.8980 hn        1 MOL      0.241046
    136 H57         1.6310   -4.2090   -0.7190 h1        1 MOL      0.089418
    137 H58         2.5720   -1.3580   -0.2100 hc        1 MOL      0.086810
    138 H59         1.2080   -1.8940   -1.2030 hc        1 MOL      0.086810
    139 H60         2.0300   -3.7020   -3.2910 ha        1 MOL      0.122911
    140 H61         4.4870   -0.5680   -1.3780 ha        1 MOL      0.122911
    141 H62         3.3010   -3.2950   -5.4010 ha        1 MOL      0.126615
    142 H63         5.9430   -0.6800   -3.1580 ha        1 MOL      0.126615
    143 H64         5.2940   -2.4180   -6.1060 ho        1 MOL      0.346404
    144 N13         4.3090   -4.4550   -0.4540 n         1 MOL     -0.488752
    145 C48         5.7760   -4.7010   -0.3190 c3        1 MOL      0.250684
    146 C49         6.5470   -3.8490   -1.2550 c         1 MOL      0.430775
    147 O21         6.8390   -4.3130   -2.4000 o         1 MOL     -0.558368
    148 C50         6.0310   -6.1930   -0.4580 c3        1 MOL     -0.009615
    149 C51         5.5630   -6.9560    0.7690 c3        1 MOL     -0.134339
    150 C52         5.9740   -8.4530    0.6020 c         1 MOL      0.673765
    151 O22         5.2330   -9.2270   -0.0250 o         1 MOL     -0.657357
    152 O23         7.0030   -8.7910    1.2110 o         1 MOL     -0.657357
    153 H65         3.9450   -4.7310   -1.3560 hn        1 MOL      0.254955
    154 H66         6.0660   -4.4560    0.7060 h1        1 MOL      0.005431
    155 H67         7.1140   -6.3200   -0.3710 hc        1 MOL      0.016355
    156 H68         5.7160   -6.6330   -1.4020 hc        1 MOL      0.016355
    157 H69         4.4770   -6.9260    0.8540 hc        1 MOL      0.025251
    158 H70         6.0020   -6.5460    1.6780 hc        1 MOL      0.025251
    159 N14         6.9500   -2.6520   -0.8240 n         1 MOL     -0.663042
    160 C53         6.6540   -1.8690    0.3810 c3        1 MOL      0.874979
    161 C54         7.1770   -2.4040    1.6690 c         1 MOL      0.546921
    162 O24         8.1870   -3.1000    1.6590 o         1 MOL     -0.614315
    163 C55         7.0720   -0.3770    0.1880 c3        1 MOL      0.333538
    164 C56         8.4170   -0.2070   -0.5280 c3        1 MOL     -0.538555
    165 C57         8.9540    1.2850   -0.4270 c         1 MOL      0.923199
    166 O25         8.5820    2.1300    0.4640 o         1 MOL     -0.693928
    167 O26         9.8560    1.5690   -1.2520 o         1 MOL     -0.693928
    168 H71         7.6690   -2.2760   -1.4230 hn        1 MOL      0.304392
    169 H72         5.5770   -1.7830    0.5250 h1        1 MOL     -0.228953
    170 H73         7.2360    0.0520    1.1780 hc        1 MOL     -0.193123
    171 H74         6.2910    0.1890   -0.3140 hc        1 MOL     -0.193123
    172 H75         8.3980   -0.4500   -1.5910 hc        1 MOL      0.072127
    173 H76         9.1620   -0.8210   -0.0240 hc        1 MOL      0.072127
    174 N15         6.4960   -2.0080    2.7680 n         1 MOL     -0.237162
    175 C58         6.6720   -2.4760    4.1100 c3        1 MOL     -0.737812
    176 H77         5.7220   -2.8520    4.4900 h1        1 MOL      0.229970
    177 H78         7.4100   -3.2780    4.1220 h1        1 MOL      0.229970
    178 H79         7.0160   -1.6550    4.7400 h1        1 MOL      0.229970
    179 H80         5.7700   -1.3100    2.6510 hn        1 MOL      0.249022
    180 Ca1         8.6700    4.6680    0.4840 Ca        1 MOL      1.718316
    181 O27        10.8780    6.4270    0.8410 oh        1 MOL     -0.939252
    182 H81        11.0890    7.1550    0.2510 ho        1 MOL      0.428294
    183 H82        11.7020    6.2340    1.2870 ho        1 MOL      0.428294
    184 O28         8.4370    7.0950   -0.5380 oh        1 MOL     -0.939252
    185 H83         8.6150    7.9690   -0.1860 ho        1 MOL      0.428294
    186 H84         8.2550    7.2480   -1.4650 ho        1 MOL      0.428294
    187 O29         6.0210    4.4450   -0.1640 oh        1 MOL     -0.939252
    188 O30        10.7690    4.6170   -1.3650 oh        1 MOL     -0.939252
    189 H85         5.5690    4.4490   -1.0100 ho        1 MOL      0.428294
    190 H86        10.6790    4.8700   -2.2870 ho        1 MOL      0.428294
    191 H87         5.3350    4.2520    0.4760 ho        1 MOL      0.428294
    192 H88        11.7120    4.6480   -1.2030 ho        1 MOL      0.428294
    193 O31         7.9360    4.7990   -2.1820 oh        1 MOL     -0.939252
    194 H89         7.8330    3.9690   -2.6670 ho        1 MOL      0.428294
    195 H90         7.4070    5.4280   -2.6640 ho        1 MOL      0.428294
    196 O32         9.9180    3.6910    2.5890 oh        1 MOL     -0.939252
    197 H91         9.5320    3.5630    3.4560 ho        1 MOL      0.428294
    198 H92        10.8560    3.5310    2.7240 ho        1 MOL      0.428294
@<TRIPOS>BOND
     1    1    2 1   
     2    1    4 1   
     3    1    5 1   
     4    1    6 1   
     5    2    3 2   
     6    2    7 1   
     7    7    8 1   
     8    7   15 1   
     9    8    9 1   
    10    8   11 1   
    11    8   16 1   
    12    9   10 2   
    13    9   19 1   
    14   11   12 1   
    15   11   17 1   
    16   11   18 1   
    17   12   13 1   
    18   12   14 1   
    19   19   20 1   
    20   19   27 1   
    21   20   21 1   
    22   20   23 1   
    23   20   28 1   
    24   21   22 2   
    25   21   38 1   
    26   23   24 1   
    27   23   25 1   
    28   23   29 1   
    29   24   26 1   
    30   24   30 1   
    31   24   31 1   
    32   25   32 1   
    33   25   33 1   
    34   25   34 1   
    35   26   35 1   
    36   26   36 1   
    37   26   37 1   
    38   38   39 1   
    39   38   46 1   
    40   39   40 1   
    41   39   42 1   
    42   39   47 1   
    43   40   41 2   
    44   40   50 1   
    45   42   43 1   
    46   42   48 1   
    47   42   49 1   
    48   43   44 1   
    49   43   45 1   
    50   50   51 1   
    51   50   54 1   
    52   51   52 1   
    53   51   55 1   
    54   51   56 1   
    55   52   53 2   
    56   52   57 1   
    57   57   58 1   
    58   57   65 1   
    59   58   59 1   
    60   58   61 1   
    61   58   66 1   
    62   59   60 2   
    63   59   69 1   
    64   61   62 1   
    65   61   67 1   
    66   61   68 1   
    67   62   63 1   
    68   62   64 1   
    69   69   70 1   
    70   69   73 1   
    71   70   71 1   
    72   70   74 1   
    73   70   75 1   
    74   71   72 2   
    75   71   76 1   
    76   76   77 1   
    77   76   85 1   
    78   77   78 1   
    79   77   80 1   
    80   77   86 1   
    81   78   79 2   
    82   78   93 1   
    83   80   81 1   
    84   80   87 1   
    85   80   88 1   
    86   81   82 1   
    87   81   89 1   
    88   81   90 1   
    89   82   83 1   
    90   82   84 2   
    91   83   91 1   
    92   83   92 1   
    93   93   94 1   
    94   93  100 1   
    95   94   95 1   
    96   94   97 1   
    97   94  101 1   
    98   95   96 2   
    99   95  109 1   
   100   97   98 1   
   101   97   99 1   
   102   97  102 1   
   103   98  103 1   
   104   98  104 1   
   105   98  105 1   
   106   99  106 1   
   107   99  107 1   
   108   99  108 1   
   109  109  110 1   
   110  109  117 1   
   111  110  111 1   
   112  110  113 1   
   113  110  118 1   
   114  111  112 2   
   115  111  123 1   
   116  113  114 1   
   117  113  119 1   
   118  113  120 1   
   119  114  115 1   
   120  114  116 2   
   121  115  121 1   
   122  115  122 1   
   123  123  124 1   
   124  123  135 1   
   125  124  125 1   
   126  124  127 1   
   127  124  136 1   
   128  125  126 2   
   129  125  144 1   
   130  127  128 1   
   131  127  137 1   
   132  127  138 1   
   133  128  129 ar  
   134  128  130 ar  
   135  129  131 ar  
   136  129  139 1   
   137  130  132 ar  
   138  130  140 1   
   139  131  133 ar  
   140  131  141 1   
   141  132  133 ar  
   142  132  142 1   
   143  133  134 1   
   144  134  143 1   
   145  144  145 1   
   146  144  153 1   
   147  145  146 1   
   148  145  148 1   
   149  145  154 1   
   150  146  147 2   
   151  146  159 1   
   152  148  149 1   
   153  148  155 1   
   154  148  156 1   
   155  149  150 1   
   156  149  157 1   
   157  149  158 1   
   158  150  151 1   
   159  150  152 1   
   160  159  160 1   
   161  159  168 1   
   162  160  161 1   
   163  160  163 1   
   164  160  169 1   
   165  161  162 2   
   166  161  174 1   
   167  163  164 1   
   168  163  170 1   
   169  163  171 1   
   170  164  165 1   
   171  164  172 1   
   172  164  173 1   
   173  165  166 1   
   174  165  167 1   
   175  174  175 1   
   176  174  179 1   
   177  175  176 1   
   178  175  177 1   
   179  175  178 1   
   180  181  182 1   
   181  181  183 1   
   182  184  185 1   
   183  184  186 1   
   184  187  189 1   
   185  187  191 1   
   186  188  190 1   
   187  188  192 1   
   188  193  194 1   
   189  193  195 1   
   190  196  197 1   
   191  196  198 1   
@<TRIPOS>SUBSTRUCTURE
     1 MOL         1 TEMP              0 ****  ****    0 ROOT
