@<TRIPOS>MOLECULE
MOL
  181   177     1     0     0
SMALL
resp


@<TRIPOS>ATOM
      1 C1          9.9700    6.8840   -1.0310 c3        1 MOL     -0.179591
      2 C2          8.9740    5.7840   -0.5410 c         1 MOL      0.550476
      3 O1          8.1340    6.0800    0.2310 o         1 MOL     -0.537618
      4 H1         10.3140    7.4680   -0.1780 hc        1 MOL      0.038936
      5 H2         10.8250    6.4100   -1.5160 hc        1 MOL      0.038936
      6 H3          9.4670    7.5400   -1.7410 hc        1 MOL      0.038936
      7 N1          8.8770    4.5760   -1.0560 n         1 MOL     -0.436931
      8 C3          9.9330    3.8320   -1.7400 c3        1 MOL      0.088965
      9 C4         10.6830    2.9160   -0.8450 c         1 MOL      0.366884
     10 O2         11.6260    2.2440   -1.2250 o         1 MOL     -0.538466
     11 C5          9.2760    3.1570   -2.9270 c3        1 MOL     -0.373434
     12 C6          8.2290    2.0700   -2.5140 c         1 MOL      0.877403
     13 O3          7.7350    2.0700   -1.3440 o         1 MOL     -0.761565
     14 O4          7.8840    1.1540   -3.3080 o         1 MOL     -0.761565
     15 H4          8.1550    3.9710   -0.6880 hn        1 MOL      0.303395
     16 H5         10.6340    4.5360   -2.1790 h1        1 MOL      0.109578
     17 H6         10.0070    2.7220   -3.5970 hc        1 MOL      0.089655
     18 H7          8.9110    3.9750   -3.5310 hc        1 MOL      0.089655
     19 N2         10.2470    2.8070    0.4270 n         1 MOL     -0.310185
     20 C7         11.0050    2.2380    1.5030 c3        1 MOL      0.236074
     21 C8         10.3690    0.9560    2.0450 c         1 MOL      0.433682
     22 O5         10.8710    0.2950    2.9530 o         1 MOL     -0.584828
     23 C9         11.1610    3.3840    2.4890 c3        1 MOL     -0.371359
     24 H8          9.5100    3.4590    0.6320 hn        1 MOL      0.266250
     25 H9         11.9750    1.9270    1.1140 h1        1 MOL      0.043200
     26 H10        11.8110    4.1490    2.0660 hc        1 MOL      0.094619
     27 H11        10.1810    3.7170    2.8180 hc        1 MOL      0.094619
     28 H12        11.7540    3.0560    3.3460 hc        1 MOL      0.094619
     29 N3          9.3270    0.5280    1.3870 n         1 MOL     -0.223282
     30 C10         8.5650   -0.6080    1.8380 c3        1 MOL     -0.003782
     31 C11         8.2360   -1.4380    0.6050 c         1 MOL      0.397711
     32 O6          8.0850   -0.8630   -0.4490 o         1 MOL     -0.472339
     33 C12         7.3410   -0.1920    2.6490 c3        1 MOL     -0.067411
     34 C13         6.4270    0.7930    1.8470 c         1 MOL      0.625037
     35 O7          5.8440    0.5440    0.7420 o         1 MOL     -0.672140
     36 O8          6.3340    1.9550    2.3050 o         1 MOL     -0.672140
     37 H13         8.8860    1.0600    0.6510 hn        1 MOL      0.198139
     38 H14         9.1620   -1.2130    2.5210 h1        1 MOL      0.055122
     39 H15         7.6550    0.3380    3.5460 hc        1 MOL      0.029939
     40 H16         6.7790   -1.0530    3.0290 hc        1 MOL      0.029939
     41 N4          7.9290   -2.6830    0.7950 n         1 MOL     -0.384909
     42 C14         7.4070   -3.5800   -0.2920 c3        1 MOL     -0.141265
     43 C15         6.0350   -3.2500   -0.8660 c         1 MOL      0.811026
     44 O9          5.5320   -2.1710   -0.6130 o         1 MOL     -0.551726
     45 H17         7.8880   -3.0710    1.7250 hn        1 MOL      0.302131
     46 H18         7.5130   -4.5950    0.0810 h1        1 MOL      0.087768
     47 H19         8.1250   -3.5290   -1.1080 h1        1 MOL      0.087768
     48 N5          5.4150   -4.1040   -1.6760 n         1 MOL     -0.956199
     49 C16         4.0170   -4.0210   -2.1730 c3        1 MOL      0.705523
     50 C17         2.9620   -4.1010   -1.0230 c         1 MOL      0.470023
     51 O10         3.0920   -4.9140   -0.1340 o         1 MOL     -0.565354
     52 C18         3.8770   -5.1350   -3.1650 c3        1 MOL     -0.547392
     53 C19         2.6140   -4.9020   -3.9830 c         1 MOL      0.717161
     54 N6          1.8730   -6.0000   -3.9910 n         1 MOL     -0.824368
     55 O11         2.1520   -3.8320   -4.2770 o         1 MOL     -0.547215
     56 H20         5.7780   -5.0470   -1.7010 hn        1 MOL      0.361494
     57 H21         3.8260   -3.0590   -2.6680 h1        1 MOL     -0.143244
     58 H22         3.8580   -6.0980   -2.6560 hc        1 MOL      0.120433
     59 H23         4.7100   -5.0330   -3.8630 hc        1 MOL      0.120433
     60 H24         2.2260   -6.7880   -3.4580 hn        1 MOL      0.386999
     61 H25         0.9570   -6.0620   -4.4100 hn        1 MOL      0.386999
     62 N7          1.9050   -3.3540   -1.0580 n         1 MOL     -0.403876
     63 C20         0.9940   -3.1450    0.0750 c3        1 MOL      0.049144
     64 C21         1.6100   -2.4510    1.2540 c         1 MOL      0.646297
     65 O12         2.5150   -1.6400    0.9560 o         1 MOL     -0.610760
     66 H26         1.8080   -2.7300   -1.8410 hn        1 MOL      0.286254
     67 H27         0.5640   -4.1130    0.2940 h1        1 MOL      0.077239
     68 H28         0.2020   -2.5200   -0.3340 h1        1 MOL      0.077239
     69 N8          1.1850   -2.6620    2.4810 n         1 MOL     -0.469902
     70 C22         0.1320   -3.6540    2.8350 c3        1 MOL     -0.151228
     71 C23        -1.2920   -2.9650    2.9200 c         1 MOL      0.428127
     72 O13        -2.2870   -3.6890    2.9070 o         1 MOL     -0.552683
     73 C24         0.4680   -4.2510    4.1720 c3        1 MOL      0.305578
     74 C25         1.7160   -5.0420    4.2010 c3        1 MOL     -0.368914
     75 O14         0.6100   -3.1380    5.1300 oh        1 MOL     -0.581277
     76 H29         1.6080   -2.1420    3.2440 hn        1 MOL      0.366448
     77 H30         0.0510   -4.4630    2.1100 h1        1 MOL      0.157176
     78 H31        -0.3310   -4.8440    4.5880 h1        1 MOL      0.046188
     79 H32        -0.0370   -3.4130    5.7710 ho        1 MOL      0.376351
     80 H33         1.7100   -5.7170    3.3500 hc        1 MOL      0.096521
     81 H34         2.5970   -4.3940    4.2300 hc        1 MOL      0.096521
     82 H35         1.7920   -5.7070    5.0610 hc        1 MOL      0.096521
     83 N9         -1.3440   -1.6490    3.0110 n         1 MOL     -0.331314
     84 C26        -2.6330   -0.8220    2.8330 c3        1 MOL      0.047823
     85 C27        -2.6090   -0.1740    1.4810 c         1 MOL      0.378255
     86 O15        -1.6270    0.5880    1.1370 o         1 MOL     -0.553067
     87 C28        -2.7560    0.1820    4.0120 c3        1 MOL      0.094173
     88 C29        -2.7280   -0.6170    5.3180 c3        1 MOL      0.169633
     89 C30        -3.9510    1.1320    3.9060 c3        1 MOL     -0.150422
     90 C31        -2.9370    0.2460    6.5530 c3        1 MOL     -0.372573
     91 H36        -0.5190   -1.1370    3.2550 hn        1 MOL      0.235798
     92 H37        -3.4920   -1.4990    2.8010 h1        1 MOL      0.063368
     93 H38        -1.8810    0.8300    4.0000 hc        1 MOL     -0.000844
     94 H39        -1.7600   -1.1180    5.4440 hc        1 MOL     -0.029810
     95 H40        -3.4950   -1.3820    5.2890 hc        1 MOL     -0.029810
     96 H41        -4.7360    0.4140    4.1220 hc        1 MOL      0.074051
     97 H42        -3.9810    1.9880    4.5880 hc        1 MOL      0.074051
     98 H43        -3.9520    1.5820    2.9170 hc        1 MOL      0.074051
     99 H44        -2.0620    0.8720    6.7110 hc        1 MOL      0.080890
    100 H45        -3.9100    0.7350    6.4620 hc        1 MOL      0.080890
    101 H46        -3.0810   -0.4110    7.4090 hc        1 MOL      0.080890
    102 N10        -3.7600   -0.2760    0.7230 n         1 MOL     -0.293196
    103 C32        -4.9870   -1.0700    0.9990 c3        1 MOL      0.247491
    104 C33        -6.1850   -0.3770    0.3010 c         1 MOL      0.309463
    105 O16        -5.8680    0.3630   -0.6390 o         1 MOL     -0.437036
    106 C34        -4.7540   -2.5150    0.4720 c3        1 MOL     -0.214996
    107 C35        -4.3090   -2.6750   -0.9630 c         1 MOL      0.758988
    108 O17        -3.0900   -2.7660   -1.1980 o         1 MOL     -0.730324
    109 O18        -5.1540   -2.7240   -1.8950 o         1 MOL     -0.730324
    110 H47        -3.8210    0.2890   -0.1070 hn        1 MOL      0.259376
    111 H48        -5.2990   -1.0210    2.0300 h1        1 MOL     -0.018453
    112 H49        -5.6540   -3.0970    0.6000 hc        1 MOL      0.019463
    113 H50        -3.8900   -2.8430    1.0520 hc        1 MOL      0.019463
    114 N11        -7.4690   -0.7250    0.5360 n         1 MOL     -0.464186
    115 C36        -8.6300   -0.5120   -0.3630 c3        1 MOL      0.349687
    116 C37        -9.8500    0.0550    0.3640 c         1 MOL      0.123697
    117 O19       -10.3160   -0.4930    1.4190 o         1 MOL     -0.466591
    118 C38        -8.8940   -1.9020   -0.9450 c3        1 MOL     -0.131871
    119 C39       -10.0240   -1.9590   -2.0170 ca        1 MOL      0.088020
    120 C40       -11.3580   -2.0780   -1.6470 ca        1 MOL     -0.168728
    121 C41        -9.7090   -1.8170   -3.3890 ca        1 MOL     -0.168728
    122 C42       -12.3310   -1.9430   -2.6550 ca        1 MOL     -0.131782
    123 C43       -10.7180   -1.6240   -4.3500 ca        1 MOL     -0.131782
    124 C44       -12.0690   -1.6650   -4.0150 ca        1 MOL     -0.079956
    125 H51        -7.5270   -1.4520    1.2320 hn        1 MOL      0.313908
    126 H52        -8.3790    0.2040   -1.1360 h1        1 MOL      0.040171
    127 H53        -9.0830   -2.5820   -0.1070 hc        1 MOL      0.049452
    128 H54        -7.9540   -2.2350   -1.3860 hc        1 MOL      0.049452
    129 H55       -11.7560   -2.0930   -0.6450 ha        1 MOL      0.149962
    130 H56        -8.6700   -1.7500   -3.6590 ha        1 MOL      0.149962
    131 H57       -13.3520   -1.9370   -2.3020 ha        1 MOL      0.094010
    132 H58       -10.4140   -1.4170   -5.3680 ha        1 MOL      0.094010
    133 H59       -12.8440   -1.6020   -4.7720 ha        1 MOL      0.085402
    134 N12       -10.5500    1.0290   -0.2190 n         1 MOL      0.009528
    135 C45       -10.2790    1.7290   -1.5170 c3        1 MOL      0.066433
    136 C46        -8.9940    2.6120   -1.5470 c         1 MOL      0.332294
    137 O20        -8.3230    2.5740   -2.5280 o         1 MOL     -0.504616
    138 C47       -11.5040    2.5750   -1.7970 c3        1 MOL     -0.001166
    139 C48       -12.5620    1.6810   -1.2930 c3        1 MOL      0.015024
    140 C49       -12.0190    1.1910    0.0520 c3        1 MOL     -0.147108
    141 H60       -10.2440    0.9560   -2.2910 h1        1 MOL      0.076554
    142 H61       -11.4780    3.5260   -1.2630 hc        1 MOL      0.017074
    143 H62       -11.6240    2.6430   -2.8780 hc        1 MOL      0.017074
    144 H63       -13.5350    2.1830   -1.2690 hc        1 MOL     -0.002879
    145 H64       -12.6810    0.8770   -2.0200 hc        1 MOL     -0.002879
    146 H65       -12.2030    1.9150    0.8460 h1        1 MOL      0.082489
    147 H66       -12.4910    0.2880    0.4390 h1        1 MOL      0.082489
    148 N13        -8.6280    3.3350   -0.4570 n         1 MOL     -0.370265
    149 C50        -7.3500    3.9970   -0.2140 c3        1 MOL      0.532312
    150 C51        -7.3330    5.4030   -0.9120 c         1 MOL      0.260442
    151 O21        -7.9620    6.2970   -0.3750 o         1 MOL     -0.544031
    152 C52        -7.0910    4.1430    1.3120 c3        1 MOL     -0.163916
    153 C53        -7.0950    2.8010    2.0470 c3        1 MOL     -0.117880
    154 C54        -7.1940    2.9790    3.4560 c         1 MOL      0.727997
    155 O22        -6.6000    3.9070    4.0980 o         1 MOL     -0.727178
    156 O23        -7.7480    2.1380    4.1540 o         1 MOL     -0.727178
    157 H67        -9.3130    3.5360    0.2580 hn        1 MOL      0.245205
    158 H68        -6.5360    3.3790   -0.5970 h1        1 MOL     -0.025901
    159 H69        -7.9260    4.7240    1.7080 hc        1 MOL      0.026307
    160 H70        -6.1400    4.6580    1.4860 hc        1 MOL      0.026307
    161 H71        -6.2010    2.2790    1.6970 hc        1 MOL     -0.010741
    162 H72        -7.9190    2.1660    1.7300 hc        1 MOL     -0.010741
    163 N14        -6.7750    5.6040   -2.1270 n         1 MOL     -0.260295
    164 C55        -5.9480    4.7400   -2.9400 c3        1 MOL     -0.212929
    165 H73        -6.5830    4.0520   -3.4990 h1        1 MOL      0.092935
    166 H74        -5.3670    5.3430   -3.6370 h1        1 MOL      0.092935
    167 H75        -5.2740    4.1730   -2.2990 h1        1 MOL      0.092935
    168 H76        -6.7900    6.5390   -2.5080 hn        1 MOL      0.251782
    169 Ca1         5.9650    0.2150   -1.7660 Ca        1 MOL      1.701265
    170 O24         5.1050   -0.1000   -4.2060 oh        1 MOL     -0.800487
    171 H77         4.8440    0.5270   -4.8870 ho        1 MOL      0.396754
    172 H78         4.8320   -0.9510   -4.5540 ho        1 MOL      0.396754
    173 O25         4.9520    2.5540   -2.6310 oh        1 MOL     -0.800487
    174 H79         4.1130    2.6050   -2.1800 ho        1 MOL      0.396754
    175 H80         4.8280    3.0740   -3.4320 ho        1 MOL      0.396754
    176 O26         7.1190   -1.7880   -3.2480 oh        1 MOL     -0.800487
    177 H81         6.7180   -2.4250   -3.8350 ho        1 MOL      0.396754
    178 H82         7.9830   -2.1640   -3.0360 ho        1 MOL      0.396754
    179 O27         3.3530   -0.0310   -1.6260 oh        1 MOL     -0.800487
    180 H83         2.7020    0.1760   -2.2930 ho        1 MOL      0.396754
    181 H84         2.8370   -0.3480   -0.8830 ho        1 MOL      0.396754
@<TRIPOS>BOND
     1    1    2 1   
     2    1    4 1   
     3    1    5 1   
     4    1    6 1   
     5    2    3 2   
     6    2    7 1   
     7    7    8 1   
     8    7   15 1   
     9    8    9 1   
    10    8   11 1   
    11    8   16 1   
    12    9   10 2   
    13    9   19 1   
    14   11   12 1   
    15   11   17 1   
    16   11   18 1   
    17   12   13 1   
    18   12   14 1   
    19   19   20 1   
    20   19   24 1   
    21   20   21 1   
    22   20   23 1   
    23   20   25 1   
    24   21   22 2   
    25   21   29 1   
    26   23   26 1   
    27   23   27 1   
    28   23   28 1   
    29   29   30 1   
    30   29   37 1   
    31   30   31 1   
    32   30   33 1   
    33   30   38 1   
    34   31   32 2   
    35   31   41 1   
    36   33   34 1   
    37   33   39 1   
    38   33   40 1   
    39   34   35 1   
    40   34   36 1   
    41   41   42 1   
    42   41   45 1   
    43   42   43 1   
    44   42   46 1   
    45   42   47 1   
    46   43   44 2   
    47   43   48 1   
    48   48   49 1   
    49   48   56 1   
    50   49   50 1   
    51   49   52 1   
    52   49   57 1   
    53   50   51 2   
    54   50   62 1   
    55   52   53 1   
    56   52   58 1   
    57   52   59 1   
    58   53   54 1   
    59   53   55 2   
    60   54   60 1   
    61   54   61 1   
    62   62   63 1   
    63   62   66 1   
    64   63   64 1   
    65   63   67 1   
    66   63   68 1   
    67   64   65 2   
    68   64   69 1   
    69   69   70 1   
    70   69   76 1   
    71   70   71 1   
    72   70   73 1   
    73   70   77 1   
    74   71   72 2   
    75   71   83 1   
    76   73   74 1   
    77   73   75 1   
    78   73   78 1   
    79   74   80 1   
    80   74   81 1   
    81   74   82 1   
    82   75   79 1   
    83   83   84 1   
    84   83   91 1   
    85   84   85 1   
    86   84   87 1   
    87   84   92 1   
    88   85   86 2   
    89   85  102 1   
    90   87   88 1   
    91   87   89 1   
    92   87   93 1   
    93   88   90 1   
    94   88   94 1   
    95   88   95 1   
    96   89   96 1   
    97   89   97 1   
    98   89   98 1   
    99   90   99 1   
   100   90  100 1   
   101   90  101 1   
   102  102  103 1   
   103  102  110 1   
   104  103  104 1   
   105  103  106 1   
   106  103  111 1   
   107  104  105 2   
   108  104  114 1   
   109  106  107 1   
   110  106  112 1   
   111  106  113 1   
   112  107  108 1   
   113  107  109 1   
   114  114  115 1   
   115  114  125 1   
   116  115  116 1   
   117  115  118 1   
   118  115  126 1   
   119  116  117 2   
   120  116  134 1   
   121  118  119 1   
   122  118  127 1   
   123  118  128 1   
   124  119  120 ar  
   125  119  121 ar  
   126  120  122 ar  
   127  120  129 1   
   128  121  123 ar  
   129  121  130 1   
   130  122  124 ar  
   131  122  131 1   
   132  123  124 ar  
   133  123  132 1   
   134  124  133 1   
   135  134  135 1   
   136  134  140 1   
   137  135  136 1   
   138  135  138 1   
   139  135  141 1   
   140  136  137 2   
   141  136  148 1   
   142  138  139 1   
   143  138  142 1   
   144  138  143 1   
   145  139  140 1   
   146  139  144 1   
   147  139  145 1   
   148  140  146 1   
   149  140  147 1   
   150  148  149 1   
   151  148  157 1   
   152  149  150 1   
   153  149  152 1   
   154  149  158 1   
   155  150  151 2   
   156  150  163 1   
   157  152  153 1   
   158  152  159 1   
   159  152  160 1   
   160  153  154 1   
   161  153  161 1   
   162  153  162 1   
   163  154  155 1   
   164  154  156 1   
   165  163  164 1   
   166  163  168 1   
   167  164  165 1   
   168  164  166 1   
   169  164  167 1   
   170  170  171 1   
   171  170  172 1   
   172  173  174 1   
   173  173  175 1   
   174  176  177 1   
   175  176  178 1   
   176  179  180 1   
   177  179  181 1   
@<TRIPOS>SUBSTRUCTURE
     1 MOL         1 TEMP              0 ****  ****    0 ROOT
