@<TRIPOS>MOLECULE
MOL
  182   178     1     0     0
SMALL
resp


@<TRIPOS>ATOM
      1 C1          0.2830   -3.4920    6.1040 c3        1 MOL     -0.377325
      2 C2          0.5690   -3.7060    4.5860 c         1 MOL      0.739649
      3 O1         -0.1970   -4.3760    3.8730 o         1 MOL     -0.566769
      4 H1          0.6650   -2.5180    6.4110 hc        1 MOL      0.097875
      5 H2         -0.7910   -3.5320    6.2810 hc        1 MOL      0.097875
      6 H3          0.7770   -4.2740    6.6810 hc        1 MOL      0.097875
      7 N1          1.7000   -3.1010    4.2160 n         1 MOL     -0.603370
      8 C3          2.0850   -2.8300    2.8140 c3        1 MOL      0.043126
      9 C4          2.4110   -4.1240    1.9960 c         1 MOL      0.569559
     10 O2          3.0670   -5.0700    2.4380 o         1 MOL     -0.555424
     11 C5          3.1630   -1.7400    2.8660 c3        1 MOL      0.029815
     12 C6          3.4200   -1.1050    1.5110 c         1 MOL      0.346115
     13 O3          3.9760    0.0050    1.4670 o         1 MOL     -0.592515
     14 O4          3.0050   -1.6630    0.4460 o         1 MOL     -0.592515
     15 H4          2.1260   -2.4680    4.8660 hn        1 MOL      0.302072
     16 H5          1.1300   -2.4190    2.4820 h1        1 MOL     -0.024221
     17 H6          4.1020   -2.1900    3.1970 hc        1 MOL      0.037357
     18 H7          2.8840   -0.9600    3.5790 hc        1 MOL      0.037357
     19 N2          2.1070   -4.1540    0.6950 n         1 MOL     -0.209504
     20 C7          2.5630   -5.1950   -0.2850 c3        1 MOL      0.009241
     21 C8          4.0200   -5.1250   -0.8580 c         1 MOL      0.482315
     22 O5          4.5690   -6.1460   -1.3090 o         1 MOL     -0.548965
     23 C9          1.5640   -5.1890   -1.4730 c3        1 MOL      0.067952
     24 C10         1.6600   -6.3210   -2.4990 c3        1 MOL     -0.079295
     25 C11         1.1620   -7.6250   -1.9470 c3        1 MOL     -0.022052
     26 C12         1.2840   -8.7750   -2.9170 c3        1 MOL      0.021426
     27 N3          0.5140   -9.9770   -2.3980 n4        1 MOL     -0.268891
     28 H8          1.4210   -3.4640    0.4220 hn        1 MOL      0.048232
     29 H9          2.4190   -6.2290    0.0230 h1        1 MOL      0.045837
     30 H10         1.8500   -4.3180   -2.0560 hc        1 MOL     -0.012331
     31 H11         0.5690   -5.1180   -1.0190 hc        1 MOL     -0.012331
     32 H12         2.6930   -6.3780   -2.8160 hc        1 MOL      0.039476
     33 H13         1.0640   -6.0600   -3.3740 hc        1 MOL      0.039476
     34 H14         0.1320   -7.5770   -1.5730 hc        1 MOL      0.047703
     35 H15         1.7680   -7.9740   -1.1150 hc        1 MOL      0.047703
     36 H16         2.3450   -8.9060   -3.1320 hx        1 MOL      0.082547
     37 H17         0.8170   -8.4750   -3.8530 hx        1 MOL      0.082547
     38 H18        -0.4430   -9.6900   -2.2300 hn        1 MOL      0.247504
     39 H19         0.6110  -10.8060   -2.9620 hn        1 MOL      0.247504
     40 H20         0.9120  -10.3100   -1.5300 hn        1 MOL      0.247504
     41 N4          4.6730   -3.9330   -0.8580 n         1 MOL     -0.311502
     42 C13         5.9940   -3.6930   -1.3640 c3        1 MOL      0.082008
     43 C14         6.8690   -2.9160   -0.3750 c         1 MOL      0.388065
     44 O6          8.0810   -2.9020   -0.5760 o         1 MOL     -0.505396
     45 C15         5.9260   -2.9650   -2.6650 c3        1 MOL     -0.188961
     46 C16         4.9450   -1.7830   -2.6620 c         1 MOL      0.712384
     47 O7          4.9840   -0.9270   -1.7330 o         1 MOL     -0.719797
     48 O8          4.1370   -1.5580   -3.6270 o         1 MOL     -0.719797
     49 H21         4.0860   -3.1480   -0.5830 hn        1 MOL      0.252287
     50 H22         6.5050   -4.6540   -1.4660 h1        1 MOL      0.105143
     51 H23         5.6720   -3.6050   -3.5120 hc        1 MOL      0.052288
     52 H24         6.9360   -2.6250   -2.8570 hc        1 MOL      0.052288
     53 N5          6.2690   -2.4500    0.7250 n         1 MOL     -0.221062
     54 C17         6.9180   -1.5430    1.7080 c3        1 MOL     -0.150086
     55 C18         7.1070   -0.0320    1.3560 c         1 MOL      0.488887
     56 O9          7.3160    0.6490    2.3270 o         1 MOL     -0.539102
     57 H25         5.3010   -2.6930    0.8890 hn        1 MOL      0.161564
     58 H26         7.8590   -1.8810    2.1510 h1        1 MOL      0.115863
     59 H27         6.2020   -1.4870    2.5390 h1        1 MOL      0.115863
     60 N6          6.8660    0.4690    0.1210 n         1 MOL     -0.012897
     61 C19         7.1360    1.8420   -0.3120 c3        1 MOL     -0.024149
     62 C20         5.9530    2.8080   -0.2200 c         1 MOL      0.578833
     63 O10         4.8240    2.3190   -0.3610 o         1 MOL     -0.551275
     64 C21         7.5760    1.6560   -1.7880 c3        1 MOL     -0.345066
     65 C22         8.8990    0.9310   -1.8290 c         1 MOL      0.687752
     66 N7          9.0020   -0.2360   -2.3710 n         1 MOL     -0.824571
     67 O11         9.8940    1.4340   -1.3640 o         1 MOL     -0.556637
     68 H28         6.7230   -0.2550   -0.5700 hn        1 MOL      0.034234
     69 H29         7.9070    2.3050    0.3100 h1        1 MOL      0.039659
     70 H30         7.6570    2.6560   -2.2040 hc        1 MOL      0.100049
     71 H31         6.8070    1.0620   -2.2800 hc        1 MOL      0.100049
     72 H32         8.2070   -0.5990   -2.8740 hn        1 MOL      0.401194
     73 H33         9.8580   -0.7360   -2.1810 hn        1 MOL      0.401194
     74 N8          6.2140    4.1210   -0.1450 n         1 MOL     -0.396954
     75 C23         5.2110    5.1820   -0.2250 c3        1 MOL     -0.133155
     76 C24         3.9670    5.0020    0.6730 c         1 MOL      0.645249
     77 O12         4.0790    4.8050    1.8840 o         1 MOL     -0.499405
     78 H34         7.1890    4.3590   -0.1010 hn        1 MOL      0.328422
     79 H35         4.9230    5.2510   -1.2760 h1        1 MOL      0.092710
     80 H36         5.6420    6.1430    0.0440 h1        1 MOL      0.092710
     81 N9          2.7600    5.2100    0.0860 n         1 MOL     -0.672860
     82 C25         1.4780    4.8250    0.7090 c3        1 MOL      0.569033
     83 C26         1.2570    3.3720    1.0120 c         1 MOL      0.226043
     84 O13         2.1120    2.5560    0.6980 o         1 MOL     -0.475908
     85 C27         0.3970    5.5420   -0.1670 c3        1 MOL     -0.271899
     86 C28         0.6500    6.9970   -0.5620 ca        1 MOL      0.203090
     87 C29         1.3260    7.2790   -1.7660 ca        1 MOL     -0.245680
     88 C30         0.0550    8.0040    0.1850 ca        1 MOL     -0.245680
     89 C31         1.4470    8.6440   -2.2110 ca        1 MOL     -0.197963
     90 C32         0.1190    9.3610   -0.2750 ca        1 MOL     -0.197963
     91 C33         0.7590    9.6960   -1.5000 ca        1 MOL      0.258555
     92 O14         0.8440   10.9910   -1.8240 oh        1 MOL     -0.423046
     93 H37         2.7980    5.3530   -0.9180 hn        1 MOL      0.254189
     94 H38         1.5020    5.2990    1.6890 h1        1 MOL     -0.015128
     95 H39        -0.5300    5.3570    0.3780 hc        1 MOL      0.040940
     96 H40         0.4520    4.9290   -1.0650 hc        1 MOL      0.040940
     97 H41         1.7120    6.5090   -2.4200 ha        1 MOL      0.163973
     98 H42        -0.5710    7.7880    1.0420 ha        1 MOL      0.163973
     99 H43         1.9440    8.8440   -3.1500 ha        1 MOL      0.144682
    100 H44        -0.3900   10.1200    0.3020 ha        1 MOL      0.144682
    101 H45         1.2300   11.1370   -2.6900 ho        1 MOL      0.357942
    102 N10         0.1990    3.1020    1.7680 n         1 MOL     -0.452176
    103 C34        -0.1830    1.8350    2.2940 c3        1 MOL      0.080823
    104 C35        -0.5630    0.9110    1.1680 c         1 MOL      0.266084
    105 O15         0.2870    0.5260    0.3950 o         1 MOL     -0.254480
    106 C36         0.8150    1.1210    3.2480 c3        1 MOL      0.442202
    107 C37         0.0720    0.0220    3.9460 c3        1 MOL     -0.300981
    108 C38         1.4280    2.0810    4.2440 c3        1 MOL     -0.353993
    109 C39        -1.0640    0.3620    4.9370 c3        1 MOL     -0.262772
    110 H46        -0.2040    3.9340    2.1750 hn        1 MOL      0.286061
    111 H47        -1.0980    2.1180    2.8070 h1        1 MOL      0.050285
    112 H48         1.6960    0.7680    2.7110 hc        1 MOL      0.027506
    113 H49         0.8350   -0.5480    4.4840 hc        1 MOL      0.114627
    114 H50        -0.2550   -0.6800    3.1870 hc        1 MOL      0.114627
    115 H51         0.6650    2.5770    4.8540 hc        1 MOL      0.086946
    116 H52         2.1810    1.4770    4.7530 hc        1 MOL      0.086946
    117 H53         1.9180    2.8850    3.6930 hc        1 MOL      0.086946
    118 H54        -1.8400    0.8010    4.3160 hc        1 MOL      0.072431
    119 H55        -1.4540   -0.5880    5.2850 hc        1 MOL      0.072431
    120 H56        -0.6990    1.0110    5.7340 hc        1 MOL      0.072431
    121 N11        -1.7770    0.3880    1.1040 n         1 MOL     -0.475426
    122 C40        -2.1970   -0.6340    0.0930 c3        1 MOL      0.176489
    123 C41        -3.7190   -0.7880   -0.1250 c         1 MOL      0.431208
    124 O16        -4.2370   -1.6960   -0.8350 o         1 MOL     -0.505196
    125 C42        -1.6670   -2.0400    0.3920 c3        1 MOL      0.003732
    126 O17        -0.2680   -2.0640    0.4490 oh        1 MOL     -0.183987
    127 H57        -2.4650    0.6700    1.7940 hn        1 MOL      0.338344
    128 H58        -1.7500   -0.2760   -0.8350 h1        1 MOL      0.073822
    129 H59        -1.9330   -2.6450   -0.4720 h1        1 MOL      0.060654
    130 H60        -2.0930   -2.2770    1.3680 h1        1 MOL      0.060654
    131 H61        -0.0600   -1.1260    0.3800 ho        1 MOL      0.008508
    132 N12        -4.5290    0.1240    0.4090 n         1 MOL     -0.530620
    133 C43        -5.9850    0.1040    0.1560 c3        1 MOL      0.382082
    134 C44        -6.2430    0.6270   -1.2570 c         1 MOL      0.550957
    135 O18        -5.4720    1.4010   -1.8300 o         1 MOL     -0.562670
    136 C45        -6.7000    0.9670    1.2060 c3        1 MOL     -0.426314
    137 H62        -4.1470    0.8130    1.0440 hn        1 MOL      0.255062
    138 H63        -6.4300   -0.8920    0.1990 h1        1 MOL      0.037677
    139 H64        -6.5800    0.3340    2.0960 hc        1 MOL      0.117290
    140 H65        -6.1650    1.9090    1.2970 hc        1 MOL      0.117290
    141 H66        -7.7810    1.1140    1.1100 hc        1 MOL      0.117290
    142 N13        -7.4030    0.2760   -1.9260 n         1 MOL     -0.661239
    143 C46        -8.5620   -0.4020   -1.4400 c3        1 MOL      0.565600
    144 C47        -9.8040    0.1800   -2.1340 c         1 MOL      0.300272
    145 O19        -9.6430    0.6930   -3.2500 o         1 MOL     -0.508318
    146 C48        -8.4790   -1.9370   -1.5840 c3        1 MOL     -0.346894
    147 H67        -7.4580    0.8210   -2.7620 hn        1 MOL      0.333390
    148 H68        -8.6520   -0.1200   -0.3910 h1        1 MOL     -0.107683
    149 H69        -7.4760   -2.3660   -1.5950 hc        1 MOL      0.092348
    150 H70        -9.0770   -2.4930   -0.8740 hc        1 MOL      0.092348
    151 H71        -8.9540   -2.0530   -2.5570 hc        1 MOL      0.092348
    152 N14       -11.0300    0.2070   -1.5270 n         1 MOL     -0.249286
    153 C49       -11.2380   -0.2120   -0.1350 c3        1 MOL     -0.256940
    154 C50       -10.9280    0.8470    0.9550 c         1 MOL      0.371767
    155 O20       -10.5320    0.4290    2.0590 o         1 MOL     -0.482043
    156 C51       -12.6400   -0.6380    0.1510 c3        1 MOL      0.242993
    157 C52       -13.1870   -1.7550   -0.7880 c3        1 MOL     -0.292388
    158 C53       -14.7220   -1.9430   -0.7120 c         1 MOL      0.679375
    159 O21       -15.4770   -1.6480   -1.7120 o         1 MOL     -0.645432
    160 O22       -15.2160   -2.2300    0.3870 o         1 MOL     -0.645432
    161 H72       -11.7550    0.6550   -2.0580 hn        1 MOL      0.289282
    162 H73       -10.5380   -1.0080    0.1400 h1        1 MOL      0.130908
    163 H74       -13.4070    0.1300    0.1020 hc        1 MOL      0.014270
    164 H75       -12.7360   -0.9790    1.1820 hc        1 MOL      0.014270
    165 H76       -12.6820   -2.6920   -0.5660 hc        1 MOL      0.029894
    166 H77       -12.8620   -1.5140   -1.8060 hc        1 MOL      0.029894
    167 N15       -10.8870    2.1290    0.5520 n         1 MOL     -0.276895
    168 C54       -10.1770    3.1570    1.3210 c3        1 MOL     -0.153715
    169 H78        -9.1030    3.0470    1.1700 h1        1 MOL      0.094001
    170 H79       -10.4910    4.1460    0.9850 h1        1 MOL      0.094001
    171 H80       -10.4070    3.0430    2.3810 h1        1 MOL      0.094001
    172 H81       -11.3780    2.3620   -0.2980 hn        1 MOL      0.253962
    173 Ca1         3.0670    0.6030   -1.0280 Ca        1 MOL      1.719106
    174 O23         1.7390   -0.9730   -2.4730 oh        1 MOL     -0.844639
    175 H82         2.3860   -1.4760   -2.9750 ho        1 MOL      0.417071
    176 H83         0.9090   -1.1690   -2.9020 ho        1 MOL      0.417071
    177 O24         0.8940    2.0200   -1.8840 oh        1 MOL     -0.844639
    178 H84         0.1130    1.9130   -1.3480 ho        1 MOL      0.417071
    179 H85         0.6230    2.6060   -2.5900 ho        1 MOL      0.417071
    180 O25         3.7060    1.4860   -3.4580 oh        1 MOL     -0.844639
    181 H86         4.4360    1.8730   -3.9460 ho        1 MOL      0.417071
    182 H87         3.0550    1.2800   -4.1260 ho        1 MOL      0.417071
@<TRIPOS>BOND
     1    1    2 1   
     2    1    4 1   
     3    1    5 1   
     4    1    6 1   
     5    2    3 2   
     6    2    7 1   
     7    7    8 1   
     8    7   15 1   
     9    8    9 1   
    10    8   11 1   
    11    8   16 1   
    12    9   10 2   
    13    9   19 1   
    14   11   12 1   
    15   11   17 1   
    16   11   18 1   
    17   12   13 1   
    18   12   14 1   
    19   19   20 1   
    20   19   28 1   
    21   20   21 1   
    22   20   23 1   
    23   20   29 1   
    24   21   22 2   
    25   21   41 1   
    26   23   24 1   
    27   23   30 1   
    28   23   31 1   
    29   24   25 1   
    30   24   32 1   
    31   24   33 1   
    32   25   26 1   
    33   25   34 1   
    34   25   35 1   
    35   26   27 1   
    36   26   36 1   
    37   26   37 1   
    38   27   38 1   
    39   27   39 1   
    40   27   40 1   
    41   41   42 1   
    42   41   49 1   
    43   42   43 1   
    44   42   45 1   
    45   42   50 1   
    46   43   44 2   
    47   43   53 1   
    48   45   46 1   
    49   45   51 1   
    50   45   52 1   
    51   46   47 1   
    52   46   48 1   
    53   53   54 1   
    54   53   57 1   
    55   54   55 1   
    56   54   58 1   
    57   54   59 1   
    58   55   56 2   
    59   55   60 1   
    60   60   61 1   
    61   60   68 1   
    62   61   62 1   
    63   61   64 1   
    64   61   69 1   
    65   62   63 2   
    66   62   74 1   
    67   64   65 1   
    68   64   70 1   
    69   64   71 1   
    70   65   66 1   
    71   65   67 2   
    72   66   72 1   
    73   66   73 1   
    74   74   75 1   
    75   74   78 1   
    76   75   76 1   
    77   75   79 1   
    78   75   80 1   
    79   76   77 2   
    80   76   81 1   
    81   81   82 1   
    82   81   93 1   
    83   82   83 1   
    84   82   85 1   
    85   82   94 1   
    86   83   84 2   
    87   83  102 1   
    88   85   86 1   
    89   85   95 1   
    90   85   96 1   
    91   86   87 ar  
    92   86   88 ar  
    93   87   89 ar  
    94   87   97 1   
    95   88   90 ar  
    96   88   98 1   
    97   89   91 ar  
    98   89   99 1   
    99   90   91 ar  
   100   90  100 1   
   101   91   92 1   
   102   92  101 1   
   103  102  103 1   
   104  102  110 1   
   105  103  104 1   
   106  103  106 1   
   107  103  111 1   
   108  104  105 2   
   109  104  121 1   
   110  106  107 1   
   111  106  108 1   
   112  106  112 1   
   113  107  109 1   
   114  107  113 1   
   115  107  114 1   
   116  108  115 1   
   117  108  116 1   
   118  108  117 1   
   119  109  118 1   
   120  109  119 1   
   121  109  120 1   
   122  121  122 1   
   123  121  127 1   
   124  122  123 1   
   125  122  125 1   
   126  122  128 1   
   127  123  124 2   
   128  123  132 1   
   129  125  126 1   
   130  125  129 1   
   131  125  130 1   
   132  126  131 1   
   133  132  133 1   
   134  132  137 1   
   135  133  134 1   
   136  133  136 1   
   137  133  138 1   
   138  134  135 2   
   139  134  142 1   
   140  136  139 1   
   141  136  140 1   
   142  136  141 1   
   143  142  143 1   
   144  142  147 1   
   145  143  144 1   
   146  143  146 1   
   147  143  148 1   
   148  144  145 2   
   149  144  152 1   
   150  146  149 1   
   151  146  150 1   
   152  146  151 1   
   153  152  153 1   
   154  152  161 1   
   155  153  154 1   
   156  153  156 1   
   157  153  162 1   
   158  154  155 2   
   159  154  167 1   
   160  156  157 1   
   161  156  163 1   
   162  156  164 1   
   163  157  158 1   
   164  157  165 1   
   165  157  166 1   
   166  158  159 1   
   167  158  160 1   
   168  167  168 1   
   169  167  172 1   
   170  168  169 1   
   171  168  170 1   
   172  168  171 1   
   173  174  175 1   
   174  174  176 1   
   175  177  178 1   
   176  177  179 1   
   177  180  181 1   
   178  180  182 1   
@<TRIPOS>SUBSTRUCTURE
     1 MOL         1 TEMP              0 ****  ****    0 ROOT
