@<TRIPOS>MOLECULE
MOL
  178   175     1     0     0
SMALL
resp


@<TRIPOS>ATOM
      1 C1          1.7440   -0.5350    5.2510 c3        1 MOL     -0.183344
      2 C2          2.8650   -0.0610    4.2020 c         1 MOL      0.592937
      3 O1          2.6720    0.8290    3.3600 o         1 MOL     -0.535636
      4 H1          1.0710   -1.2420    4.7670 hc        1 MOL      0.037042
      5 H2          2.2240   -1.0160    6.1030 hc        1 MOL      0.037042
      6 H3          1.1770    0.3310    5.5930 hc        1 MOL      0.037042
      7 N1          4.0610   -0.6860    4.3130 n         1 MOL     -0.480899
      8 C3          5.2970   -0.2840    3.7050 c3        1 MOL      0.116904
      9 C4          5.7890   -1.2050    2.4870 c         1 MOL      0.529759
     10 O2          6.8330   -0.8990    1.9610 o         1 MOL     -0.438294
     11 C5          6.3250   -0.3580    4.8280 c3        1 MOL     -0.146691
     12 C6          7.6710    0.2980    4.5060 c         1 MOL      0.723807
     13 O3          7.7440    1.4250    3.9640 o         1 MOL     -0.730061
     14 O4          8.6900   -0.1940    5.0360 o         1 MOL     -0.730061
     15 H4          4.0750   -1.5530    4.8230 hn        1 MOL      0.279229
     16 H5          5.1830    0.7500    3.3900 h1        1 MOL      0.066106
     17 H6          6.4680   -1.4070    5.1000 hc        1 MOL     -0.004121
     18 H7          5.8550    0.0370    5.7180 hc        1 MOL     -0.004121
     19 N2          5.0950   -2.3400    2.2470 n         1 MOL     -0.536615
     20 C7          5.1960   -3.3020    1.2050 c3        1 MOL      0.272592
     21 C8          4.9910   -2.7480   -0.1710 c         1 MOL      0.625638
     22 O5          3.9470   -2.9990   -0.8010 o         1 MOL     -0.672355
     23 C9          6.4760   -4.0760    1.4320 c3        1 MOL     -0.517931
     24 H8          4.3170   -2.4660    2.8870 hn        1 MOL      0.253325
     25 H9          4.3330   -3.9350    1.3930 h1        1 MOL      0.060623
     26 H10         7.4120   -3.5240    1.3220 hc        1 MOL      0.133241
     27 H11         6.5040   -4.4260    2.4640 hc        1 MOL      0.133241
     28 H12         6.4280   -5.0020    0.8600 hc        1 MOL      0.133241
     29 N3          5.9410   -2.0150   -0.6400 n         1 MOL     -0.517977
     30 C10         6.0430   -1.3840   -1.9640 c3        1 MOL      0.359588
     31 C11         6.3080    0.1380   -1.9390 c         1 MOL      0.498806
     32 O6          6.7530    0.7280   -2.8950 o         1 MOL     -0.547366
     33 C12         6.9880   -2.2690   -2.8540 c3        1 MOL     -0.147046
     34 C13         8.4380   -2.4440   -2.3150 c         1 MOL      0.667008
     35 O7          9.0330   -3.4470   -2.8490 o         1 MOL     -0.693173
     36 O8          9.0240   -1.5130   -1.6740 o         1 MOL     -0.693173
     37 H13         6.6850   -1.8110    0.0050 hn        1 MOL      0.245654
     38 H14         5.0700   -1.4670   -2.4520 h1        1 MOL     -0.081792
     39 H15         7.0870   -1.7850   -3.8200 hc        1 MOL     -0.015310
     40 H16         6.4650   -3.2190   -2.9630 hc        1 MOL     -0.015310
     41 N4          6.1340    0.8450   -0.8220 n         1 MOL     -0.196102
     42 C14         6.2550    2.3020   -0.8600 c3        1 MOL     -0.015566
     43 C15         5.0660    3.0490   -1.5080 c         1 MOL      0.533979
     44 O9          5.2610    4.1470   -2.0700 o         1 MOL     -0.567419
     45 H17         5.8460    0.4190    0.0440 hn        1 MOL      0.119844
     46 H18         7.1790    2.5830   -1.3570 h1        1 MOL      0.072624
     47 H19         6.4150    2.7420    0.1240 h1        1 MOL      0.072624
     48 N5          3.8910    2.4350   -1.4450 n         1 MOL     -0.397438
     49 C16         2.6470    2.8850   -2.0980 c3        1 MOL     -0.059528
     50 C17         2.0500    4.2200   -1.5950 c         1 MOL      0.698276
     51 O10         1.9930    4.5200   -0.3960 o         1 MOL     -0.513028
     52 C18         1.6540    1.7460   -2.1180 c3        1 MOL     -0.592890
     53 C19         2.1590    0.5710   -2.8990 c         1 MOL      0.726747
     54 N6          2.1490    0.7390   -4.2050 n         1 MOL     -0.688024
     55 O11         2.5330   -0.5090   -2.4980 o         1 MOL     -0.590852
     56 H20         3.8340    1.7380   -0.7170 hn        1 MOL      0.306322
     57 H21         2.9540    3.0370   -3.1350 h1        1 MOL      0.079092
     58 H22         0.7380    2.0110   -2.6410 hc        1 MOL      0.235868
     59 H23         1.4200    1.4570   -1.0860 hc        1 MOL      0.235868
     60 H24         1.8890    1.6380   -4.6080 hn        1 MOL      0.323828
     61 H25         2.5500    0.0070   -4.7620 hn        1 MOL      0.323828
     62 N7          1.5320    5.0500   -2.5480 n         1 MOL     -0.517307
     63 C20         1.0120    6.4010   -2.2330 c3        1 MOL     -0.211276
     64 C21        -0.4740    6.4060   -1.8260 c         1 MOL      0.635599
     65 O12        -1.2800    5.7360   -2.5240 o         1 MOL     -0.521353
     66 H26         1.5420    4.8110   -3.5320 hn        1 MOL      0.323591
     67 H27         0.9770    7.0340   -3.1220 h1        1 MOL      0.131662
     68 H28         1.6180    6.8800   -1.4630 h1        1 MOL      0.131662
     69 N8         -0.9530    7.2600   -0.8780 n         1 MOL     -0.476888
     70 C22        -2.3840    7.4440   -0.6050 c3        1 MOL     -0.467953
     71 C23        -3.0970    6.3310    0.1120 c         1 MOL      0.560994
     72 O13        -4.2480    6.3760    0.4830 o         1 MOL     -0.551110
     73 C24        -2.5540    8.8370   -0.0670 c3        1 MOL      0.617375
     74 C25        -2.0810    8.9670    1.3790 c3        1 MOL     -0.314501
     75 O14        -1.8520    9.9450   -0.6730 oh        1 MOL     -0.647775
     76 H29        -0.2210    7.8890   -0.5820 hn        1 MOL      0.261696
     77 H30        -2.8680    7.4690   -1.5870 h1        1 MOL      0.195807
     78 H31        -3.6200    9.0700   -0.0510 h1        1 MOL     -0.001147
     79 H32        -0.9350    9.7050   -0.5240 ho        1 MOL      0.382350
     80 H33        -1.9590   10.0120    1.6620 hc        1 MOL      0.067330
     81 H34        -2.7770    8.4030    2.0000 hc        1 MOL      0.067330
     82 H35        -1.1070    8.4940    1.5010 hc        1 MOL      0.067330
     83 N9         -2.3910    5.2140    0.2760 n         1 MOL     -0.098165
     84 C26        -2.8840    3.8970    0.7150 c3        1 MOL     -0.025183
     85 C27        -2.3130    2.7670   -0.1040 c         1 MOL      0.473180
     86 O15        -1.3960    3.0580   -0.9670 o         1 MOL     -0.470768
     87 C28        -2.5880    3.6610    2.1950 c3        1 MOL     -0.111003
     88 C29        -1.1340    3.7380    2.6340 c3        1 MOL     -0.021880
     89 C30        -3.5130    4.5890    3.0030 c3        1 MOL     -0.280580
     90 C31        -0.9650    3.3080    4.0870 c3        1 MOL     -0.113563
     91 H36        -1.4700    5.1480   -0.1210 hn        1 MOL      0.138693
     92 H37        -3.9420    3.9490    0.4460 h1        1 MOL      0.072358
     93 H38        -2.9570    2.6610    2.4210 hc        1 MOL      0.077994
     94 H39        -0.7940    4.7700    2.5260 hc        1 MOL      0.073678
     95 H40        -0.4870    3.1370    1.9950 hc        1 MOL      0.073678
     96 H41        -3.6180    4.3980    4.0730 hc        1 MOL      0.076054
     97 H42        -3.2080    5.6290    2.9150 hc        1 MOL      0.076054
     98 H43        -4.4980    4.6740    2.5510 hc        1 MOL      0.076054
     99 H44        -1.6030    2.4520    4.2990 hc        1 MOL      0.035203
    100 H45         0.0870    3.1340    4.2770 hc        1 MOL      0.035203
    101 H46        -1.2190    4.0980    4.7970 hc        1 MOL      0.035203
    102 N10        -2.9270    1.6030   -0.0490 n         1 MOL     -0.492144
    103 C32        -2.4390    0.3340   -0.6460 c3        1 MOL      0.019655
    104 C33        -3.5360   -0.7790   -0.8190 c         1 MOL      0.446066
    105 O16        -3.3530   -1.9540   -0.4490 o         1 MOL     -0.503224
    106 C34        -1.2080   -0.1550    0.2340 c3        1 MOL     -0.160598
    107 C35        -0.1940   -0.9170   -0.6060 c         1 MOL      0.706290
    108 O17         0.8560   -1.2370   -0.0580 o         1 MOL     -0.753756
    109 O18        -0.3210   -1.2570   -1.8330 o         1 MOL     -0.753756
    110 H47        -3.5960    1.5330    0.7110 hn        1 MOL      0.272874
    111 H48        -2.0980    0.5110   -1.6660 h1        1 MOL      0.083146
    112 H49        -1.6190   -0.8740    0.9380 hc        1 MOL      0.083096
    113 H50        -0.6520    0.5870    0.7910 hc        1 MOL      0.083096
    114 N11        -4.7040   -0.2950   -1.2870 n         1 MOL     -0.324617
    115 C36        -6.0920   -0.8610   -1.2550 c3        1 MOL      0.030545
    116 C37        -6.3160   -1.9630   -0.1930 c         1 MOL      0.474346
    117 O19        -6.3710   -1.6750    1.0130 o         1 MOL     -0.514430
    118 C38        -7.0760    0.2640   -1.2370 c3        1 MOL     -0.067757
    119 C39        -8.4170   -0.3330   -1.0970 ca        1 MOL      0.095741
    120 C40        -8.9210   -1.1500   -2.0980 ca        1 MOL     -0.210869
    121 C41        -9.0970   -0.1110    0.1250 ca        1 MOL     -0.210869
    122 C42       -10.1490   -1.8170   -1.8850 ca        1 MOL     -0.060498
    123 C43       -10.3820   -0.6820    0.2630 ca        1 MOL     -0.060498
    124 C44       -10.9560   -1.5060   -0.7430 ca        1 MOL     -0.194243
    125 H51        -4.6190    0.6480   -1.6330 hn        1 MOL      0.249242
    126 H52        -6.0560   -1.4670   -2.1630 h1        1 MOL     -0.019661
    127 H53        -7.1450    0.7960   -2.1810 hc        1 MOL      0.064897
    128 H54        -6.8220    1.0310   -0.5060 hc        1 MOL      0.064897
    129 H55        -8.3360   -1.1450   -2.9990 ha        1 MOL      0.139820
    130 H56        -8.6600    0.4570    0.9250 ha        1 MOL      0.139820
    131 H57       -10.5390   -2.4770   -2.6420 ha        1 MOL      0.102870
    132 H58       -10.9500   -0.5920    1.1860 ha        1 MOL      0.102870
    133 H59       -11.9710   -1.8240   -0.5870 ha        1 MOL      0.132311
    134 N12        -6.2930   -3.2770   -0.5780 n         1 MOL     -0.145493
    135 C45        -6.4950   -4.4020    0.3160 c3        1 MOL      0.177742
    136 C46        -5.4230   -4.4220    1.3810 c         1 MOL      0.198178
    137 O20        -5.7630   -4.7960    2.5420 o         1 MOL     -0.548794
    138 C47        -6.4170   -5.6400   -0.5820 c3        1 MOL     -0.271176
    139 C48        -5.6800   -5.2580   -1.9160 c3        1 MOL     -0.005730
    140 C49        -5.9360   -3.7270   -1.9580 c3        1 MOL     -0.098913
    141 H60        -7.4740   -4.3860    0.7810 h1        1 MOL      0.053539
    142 H61        -6.0240   -6.4760   -0.0150 hc        1 MOL      0.094211
    143 H62        -7.4600   -5.7850   -0.8520 hc        1 MOL      0.094211
    144 H63        -4.6040   -5.2910   -1.7660 hc        1 MOL      0.036541
    145 H64        -6.0090   -5.7540   -2.8290 hc        1 MOL      0.036541
    146 H65        -5.0710   -3.1410   -2.2680 h1        1 MOL      0.071250
    147 H66        -6.8430   -3.5630   -2.5430 h1        1 MOL      0.071250
    148 N13        -4.2460   -3.8390    1.2600 n         1 MOL      0.060792
    149 C50        -3.2100   -3.9370    2.2540 c3        1 MOL     -0.166121
    150 C51        -3.2540   -2.8300    3.3210 c         1 MOL      0.466373
    151 O21        -2.7070   -3.0800    4.4010 o         1 MOL     -0.554277
    152 C52        -1.8430   -4.0060    1.5420 c3        1 MOL      0.158322
    153 C53        -1.5210   -5.0230    0.4780 c3        1 MOL     -0.276394
    154 C54        -0.2770   -4.5900   -0.2660 c         1 MOL      0.779792
    155 O22         0.7870   -4.3330    0.3560 o         1 MOL     -0.745251
    156 O23        -0.3280   -4.5990   -1.4790 o         1 MOL     -0.745251
    157 H67        -4.0340   -3.3850    0.3750 hn        1 MOL      0.274724
    158 H68        -3.3740   -4.8820    2.7700 h1        1 MOL      0.104235
    159 H69        -1.1390   -4.1110    2.3640 hc        1 MOL      0.003792
    160 H70        -1.7620   -3.0040    1.1060 hc        1 MOL      0.003792
    161 H71        -2.3940   -5.0710   -0.1610 hc        1 MOL      0.026275
    162 H72        -1.4250   -5.9760    0.9950 hc        1 MOL      0.026275
    163 N14        -4.0580   -1.8410    3.0940 n         1 MOL     -0.160793
    164 C55        -4.6550   -0.9240    4.0490 c3        1 MOL     -0.362187
    165 H73        -5.4870   -1.4160    4.5530 h1        1 MOL      0.137278
    166 H74        -3.9080   -0.6290    4.7860 h1        1 MOL      0.137278
    167 H75        -5.0200   -0.0400    3.5270 h1        1 MOL      0.137278
    168 H76        -4.3180   -1.8020    2.1150 hn        1 MOL      0.203376
    169 Ca1         1.6140   -3.0930   -1.9860 Ca        1 MOL      1.761046
    170 O24         3.7300   -3.6620   -3.8650 oh        1 MOL     -0.812858
    171 H77         3.6130   -4.4280   -4.4250 ho        1 MOL      0.394163
    172 H78         4.6170   -3.3590   -4.0510 ho        1 MOL      0.394163
    173 O25         2.5830   -5.6510   -1.9560 oh        1 MOL     -0.812858
    174 H79         2.3200   -6.2000   -2.6820 ho        1 MOL      0.394163
    175 H80         3.4890   -5.9000   -1.7790 ho        1 MOL      0.394163
    176 O26         0.3100   -3.0670   -4.2500 oh        1 MOL     -0.812858
    177 H81         0.4800   -2.4580   -4.9700 ho        1 MOL      0.394163
    178 H82        -0.1020   -3.8210   -4.6690 ho        1 MOL      0.394163
@<TRIPOS>BOND
     1    1    2 1   
     2    1    4 1   
     3    1    5 1   
     4    1    6 1   
     5    2    3 2   
     6    2    7 1   
     7    7    8 1   
     8    7   15 1   
     9    8    9 1   
    10    8   11 1   
    11    8   16 1   
    12    9   10 2   
    13    9   19 1   
    14   11   12 1   
    15   11   17 1   
    16   11   18 1   
    17   12   13 1   
    18   12   14 1   
    19   19   20 1   
    20   19   24 1   
    21   20   21 1   
    22   20   23 1   
    23   20   25 1   
    24   21   22 2   
    25   21   29 1   
    26   23   26 1   
    27   23   27 1   
    28   23   28 1   
    29   29   30 1   
    30   29   37 1   
    31   30   31 1   
    32   30   33 1   
    33   30   38 1   
    34   31   32 2   
    35   31   41 1   
    36   33   34 1   
    37   33   39 1   
    38   33   40 1   
    39   34   35 1   
    40   34   36 1   
    41   41   42 1   
    42   41   45 1   
    43   42   43 1   
    44   42   46 1   
    45   42   47 1   
    46   43   44 2   
    47   43   48 1   
    48   48   49 1   
    49   48   56 1   
    50   49   50 1   
    51   49   52 1   
    52   49   57 1   
    53   50   51 2   
    54   50   62 1   
    55   52   53 1   
    56   52   58 1   
    57   52   59 1   
    58   53   54 1   
    59   53   55 2   
    60   54   60 1   
    61   54   61 1   
    62   62   63 1   
    63   62   66 1   
    64   63   64 1   
    65   63   67 1   
    66   63   68 1   
    67   64   65 2   
    68   64   69 1   
    69   69   70 1   
    70   69   76 1   
    71   70   71 1   
    72   70   73 1   
    73   70   77 1   
    74   71   72 2   
    75   71   83 1   
    76   73   74 1   
    77   73   75 1   
    78   73   78 1   
    79   74   80 1   
    80   74   81 1   
    81   74   82 1   
    82   75   79 1   
    83   83   84 1   
    84   83   91 1   
    85   84   85 1   
    86   84   87 1   
    87   84   92 1   
    88   85   86 2   
    89   85  102 1   
    90   87   88 1   
    91   87   89 1   
    92   87   93 1   
    93   88   90 1   
    94   88   94 1   
    95   88   95 1   
    96   89   96 1   
    97   89   97 1   
    98   89   98 1   
    99   90   99 1   
   100   90  100 1   
   101   90  101 1   
   102  102  103 1   
   103  102  110 1   
   104  103  104 1   
   105  103  106 1   
   106  103  111 1   
   107  104  105 2   
   108  104  114 1   
   109  106  107 1   
   110  106  112 1   
   111  106  113 1   
   112  107  108 1   
   113  107  109 1   
   114  114  115 1   
   115  114  125 1   
   116  115  116 1   
   117  115  118 1   
   118  115  126 1   
   119  116  117 2   
   120  116  134 1   
   121  118  119 1   
   122  118  127 1   
   123  118  128 1   
   124  119  120 ar  
   125  119  121 ar  
   126  120  122 ar  
   127  120  129 1   
   128  121  123 ar  
   129  121  130 1   
   130  122  124 ar  
   131  122  131 1   
   132  123  124 ar  
   133  123  132 1   
   134  124  133 1   
   135  134  135 1   
   136  134  140 1   
   137  135  136 1   
   138  135  138 1   
   139  135  141 1   
   140  136  137 2   
   141  136  148 1   
   142  138  139 1   
   143  138  142 1   
   144  138  143 1   
   145  139  140 1   
   146  139  144 1   
   147  139  145 1   
   148  140  146 1   
   149  140  147 1   
   150  148  149 1   
   151  148  157 1   
   152  149  150 1   
   153  149  152 1   
   154  149  158 1   
   155  150  151 2   
   156  150  163 1   
   157  152  153 1   
   158  152  159 1   
   159  152  160 1   
   160  153  154 1   
   161  153  161 1   
   162  153  162 1   
   163  154  155 1   
   164  154  156 1   
   165  163  164 1   
   166  163  168 1   
   167  164  165 1   
   168  164  166 1   
   169  164  167 1   
   170  170  171 1   
   171  170  172 1   
   172  173  174 1   
   173  173  175 1   
   174  176  177 1   
   175  176  178 1   
@<TRIPOS>SUBSTRUCTURE
     1 MOL         1 TEMP              0 ****  ****    0 ROOT
