@<TRIPOS>MOLECULE
MOL
  188   182     1     0     0
SMALL
resp


@<TRIPOS>ATOM
      1 C1         -6.3630    1.6880    3.0750 c3        1 MOL     -0.299441
      2 C2         -6.8640    0.6110    2.0490 c         1 MOL      0.675986
      3 O1         -6.0940    0.2420    1.1800 o         1 MOL     -0.521037
      4 H1         -7.2020    2.3130    3.3830 hc        1 MOL      0.072588
      5 H2         -5.9410    1.1900    3.9480 hc        1 MOL      0.072588
      6 H3         -5.6000    2.3090    2.6060 hc        1 MOL      0.072588
      7 N1         -8.1710    0.2980    2.1310 n         1 MOL     -0.558838
      8 C3         -8.9440   -0.6500    1.4520 c3        1 MOL      0.191939
      9 C4         -8.9830   -0.5380   -0.1070 c         1 MOL      0.443940
     10 O2         -9.2910   -1.5100   -0.8080 o         1 MOL     -0.495077
     11 C5         -8.7810   -2.1340    1.9010 c3        1 MOL     -0.250560
     12 C6         -8.6040   -2.2850    3.4660 c         1 MOL      0.721623
     13 O3         -9.6550   -2.5680    4.1260 o         1 MOL     -0.654558
     14 O4         -7.5460   -2.0830    4.0440 o         1 MOL     -0.654558
     15 H4         -8.6620    0.7600    2.8800 hn        1 MOL      0.328762
     16 H5         -9.9950   -0.4130    1.6700 h1        1 MOL      0.036620
     17 H6         -7.8900   -2.5380    1.4300 hc        1 MOL      0.068569
     18 H7         -9.5810   -2.8220    1.6090 hc        1 MOL      0.068569
     19 N2         -8.4860    0.6020   -0.5890 n         1 MOL     -0.407536
     20 C7         -8.2640    0.8740   -1.9900 c3        1 MOL      0.173332
     21 C8         -6.8150    0.7090   -2.4920 c         1 MOL      0.547405
     22 O5         -6.6950    0.9220   -3.7140 o         1 MOL     -0.600993
     23 C9         -8.7090    2.3680   -2.4060 c3        1 MOL     -0.157889
     24 C10        -7.8420    3.4500   -1.6390 c3        1 MOL      0.176161
     25 C11        -8.3960    4.8040   -1.6910 c3        1 MOL      0.001971
     26 C12        -7.6550    5.8340   -0.7640 c3        1 MOL     -0.062415
     27 N3         -6.3170    6.1660   -1.3100 n4        1 MOL     -0.114231
     28 H8         -8.2770    1.3570    0.0490 hn        1 MOL      0.189822
     29 H9         -8.8280    0.2100   -2.6360 h1        1 MOL      0.080941
     30 H10        -9.7450    2.4740   -2.1010 hc        1 MOL      0.046681
     31 H11        -8.6070    2.5420   -3.4840 hc        1 MOL      0.046681
     32 H12        -6.8290    3.4670   -2.0410 hc        1 MOL     -0.053879
     33 H13        -7.7720    3.1330   -0.5910 hc        1 MOL     -0.053879
     34 H14        -9.4430    4.7700   -1.3770 hc        1 MOL      0.035034
     35 H15        -8.4140    5.1530   -2.7240 hc        1 MOL      0.035034
     36 H16        -7.6320    5.4630    0.2590 hx        1 MOL      0.083284
     37 H17        -8.2520    6.7430   -0.8380 hx        1 MOL      0.083284
     38 H18        -5.8310    6.9180   -0.8360 hn        1 MOL      0.216147
     39 H19        -5.7620    5.3260   -1.1980 hn        1 MOL      0.216147
     40 H20        -6.2410    6.2540   -2.3120 hn        1 MOL      0.216147
     41 N4         -5.8450    0.4190   -1.7100 n         1 MOL     -0.336209
     42 C13        -4.4610    0.3180   -2.1830 c3        1 MOL     -0.181005
     43 C14        -4.1210   -1.0220   -2.9740 c         1 MOL      0.561919
     44 O6         -4.5250   -2.1770   -2.6260 o         1 MOL     -0.484507
     45 C15        -3.5390    0.3760   -1.0180 c3        1 MOL      0.150688
     46 C16        -2.0430    0.5170   -1.3300 c         1 MOL      0.637115
     47 O7         -1.4820    1.6420   -1.2820 o         1 MOL     -0.771164
     48 O8         -1.4290   -0.5280   -1.6000 o         1 MOL     -0.771164
     49 H21        -5.9930    0.3360   -0.7150 hn        1 MOL      0.229134
     50 H22        -4.2320    1.2010   -2.7870 h1        1 MOL      0.076212
     51 H23        -3.7040   -0.5590   -0.4840 hc        1 MOL     -0.053101
     52 H24        -3.7990    1.1910   -0.3510 hc        1 MOL     -0.053101
     53 N5         -3.2780   -0.8700   -3.9370 n         1 MOL     -0.275370
     54 C17        -3.0070   -1.9310   -4.8910 c3        1 MOL     -0.131264
     55 C18        -2.2170   -3.1420   -4.3970 c         1 MOL      0.486358
     56 O9         -2.4980   -4.2190   -4.9430 o         1 MOL     -0.509464
     57 H25        -3.0340    0.0830   -4.1850 hn        1 MOL      0.228546
     58 H26        -2.4640   -1.4410   -5.6980 h1        1 MOL      0.099434
     59 H27        -3.9370   -2.2990   -5.3350 h1        1 MOL      0.099434
     60 N6         -1.3680   -3.0180   -3.4030 n         1 MOL     -0.504264
     61 C19        -0.7960   -4.0800   -2.5070 c3        1 MOL      0.056226
     62 C20        -1.3180   -3.9500   -1.0750 c         1 MOL      0.364515
     63 O10        -0.8250   -4.5380   -0.0820 o         1 MOL     -0.510770
     64 C21         0.7780   -4.1580   -2.5990 c3        1 MOL     -0.385266
     65 C22         1.6180   -3.0760   -2.1010 c         1 MOL      0.695319
     66 N7          2.9370   -3.1500   -2.3320 n         1 MOL     -0.696712
     67 O11         1.1850   -2.0560   -1.5380 o         1 MOL     -0.537506
     68 H28        -1.1270   -2.0470   -3.2610 hn        1 MOL      0.370877
     69 H29        -1.0410   -5.0460   -2.9300 h1        1 MOL      0.148261
     70 H30         1.0440   -4.4340   -3.6190 hc        1 MOL      0.146087
     71 H31         1.1210   -5.0390   -2.0530 hc        1 MOL      0.146087
     72 H32         3.3870   -3.9050   -2.8210 hn        1 MOL      0.331371
     73 H33         3.5030   -2.4480   -1.8690 hn        1 MOL      0.331371
     74 N8         -2.3510   -3.1600   -0.9800 n         1 MOL     -0.010125
     75 C23        -3.2110   -3.0460    0.2490 c3        1 MOL     -0.453934
     76 C24        -2.6630   -2.4910    1.5230 c         1 MOL      0.666158
     77 O12        -3.0150   -2.8780    2.6160 o         1 MOL     -0.510841
     78 H34        -2.5760   -2.5360   -1.7380 hn        1 MOL      0.174035
     79 H35        -3.5060   -4.0830    0.4540 h1        1 MOL      0.193959
     80 H36        -4.1760   -2.5720    0.0380 h1        1 MOL      0.193959
     81 N9         -1.6890   -1.5820    1.3530 n         1 MOL     -0.428225
     82 C25        -1.0880   -0.6700    2.3630 c3        1 MOL      0.056079
     83 C26         0.2650   -0.1390    1.9660 c         1 MOL      0.486287
     84 O13         0.5390    0.0480    0.7480 o         1 MOL     -0.523675
     85 C27        -2.1040    0.5310    2.5840 c3        1 MOL     -0.107191
     86 C28        -1.6270    1.6500    3.4680 ca        1 MOL      0.018572
     87 C29        -1.2990    1.4650    4.7960 ca        1 MOL     -0.124428
     88 C30        -1.4490    3.0030    2.9390 ca        1 MOL     -0.124428
     89 C31        -0.8730    2.5390    5.5760 ca        1 MOL     -0.320260
     90 C32        -0.9640    4.0350    3.6880 ca        1 MOL     -0.320260
     91 C33        -0.6560    3.8340    5.0680 ca        1 MOL      0.416784
     92 O14        -0.3450    4.8770    5.8850 oh        1 MOL     -0.472378
     93 H37        -1.2910   -1.6000    0.4220 hn        1 MOL      0.237134
     94 H38        -0.9310   -1.1780    3.3080 h1        1 MOL      0.044283
     95 H39        -2.9920    0.0950    3.0430 hc        1 MOL      0.116012
     96 H40        -2.4960    0.9290    1.6470 hc        1 MOL      0.116012
     97 H41        -1.4600    0.4790    5.1930 ha        1 MOL      0.136568
     98 H42        -1.7730    3.1570    1.9230 ha        1 MOL      0.136568
     99 H43        -0.7320    2.3890    6.6410 ha        1 MOL      0.153106
    100 H44        -0.8780    5.0090    3.2250 ha        1 MOL      0.153106
    101 H45        -0.3740    5.6850    5.3680 ho        1 MOL      0.357282
    102 N10         1.1950    0.2240    2.9120 n         1 MOL     -0.369662
    103 C34         2.6450    0.3790    2.6520 c3        1 MOL      0.037861
    104 C35         3.2310   -0.8420    1.9020 c         1 MOL     -0.029463
    105 O15         4.0580   -0.6760    1.0400 o         1 MOL     -0.353781
    106 C36         3.4600    0.5200    3.9880 c3        1 MOL      0.362660
    107 C37         2.9240    1.7690    4.6730 c3        1 MOL      0.085192
    108 C38         4.9940    0.6330    3.9460 c3        1 MOL     -0.517908
    109 C39         2.7480    3.1320    3.8500 c3        1 MOL     -0.067404
    110 H46         0.9110    0.2210    3.8790 hn        1 MOL      0.249957
    111 H47         2.8610    1.1700    1.9230 h1        1 MOL      0.057495
    112 H48         3.2010   -0.3230    4.6210 hc        1 MOL     -0.067715
    113 H49         3.5200    1.9000    5.5690 hc        1 MOL     -0.025164
    114 H50         1.9380    1.4860    5.0590 hc        1 MOL     -0.025164
    115 H51         5.3560    1.5250    3.4250 hc        1 MOL      0.136903
    116 H52         5.3210    0.5870    4.9860 hc        1 MOL      0.136903
    117 H53         5.3910   -0.2850    3.5090 hc        1 MOL      0.136903
    118 H54         3.6280    3.3610    3.2620 hc        1 MOL      0.003516
    119 H55         1.8910    2.8620    3.2460 hc        1 MOL      0.003516
    120 H56         2.4090    3.9450    4.5010 hc        1 MOL      0.003516
    121 N11         2.8300   -2.0470    2.2630 n         1 MOL     -0.061235
    122 C40         3.1090   -3.2300    1.4050 c3        1 MOL     -0.188982
    123 C41         4.5910   -3.5730    1.1730 c         1 MOL      0.333355
    124 O16         4.9060   -4.0060    0.0790 o         1 MOL     -0.435189
    125 C42         2.3840   -4.5120    1.9470 c3        1 MOL      0.199423
    126 O17         0.9880   -4.2690    2.0510 oh        1 MOL     -0.556883
    127 H57         2.2900   -2.1650    3.1080 hn        1 MOL      0.252716
    128 H58         2.7430   -3.0730    0.3810 h1        1 MOL      0.145986
    129 H59         2.7500   -4.8270    2.9300 h1        1 MOL      0.034422
    130 H60         2.6090   -5.3050    1.2400 h1        1 MOL      0.034422
    131 H61         0.5410   -4.5190    1.2350 ho        1 MOL      0.373790
    132 N12         5.4750   -3.3660    2.1700 n         1 MOL     -0.264263
    133 C43         6.9210   -3.4070    2.1720 c3        1 MOL      0.126470
    134 C44         7.5860   -2.8200    0.9020 c         1 MOL      0.505682
    135 O18         8.6860   -3.3090    0.4760 o         1 MOL     -0.525493
    136 C45         7.4560   -4.8390    2.4400 c3        1 MOL     -0.205659
    137 H62         5.0630   -3.0600    3.0450 hn        1 MOL      0.226330
    138 H63         7.1160   -2.7650    3.0280 h1        1 MOL      0.071457
    139 H64         8.3580   -4.7290    3.0520 hc        1 MOL      0.063346
    140 H65         6.8280   -5.3640    3.1640 hc        1 MOL      0.063346
    141 H66         7.6160   -5.4670    1.5670 hc        1 MOL      0.063346
    142 N13         7.0440   -1.7130    0.4330 n         1 MOL     -0.496940
    143 C46         7.3700   -0.9680   -0.7800 c3        1 MOL      0.478652
    144 C47         7.5100    0.5230   -0.6330 c         1 MOL      0.441172
    145 O19         6.9070    1.0880    0.2760 o         1 MOL     -0.450353
    146 C48         6.2100   -1.2800   -1.8780 c3        1 MOL     -0.600524
    147 H67         6.1170   -1.5250    0.8080 hn        1 MOL      0.120972
    148 H68         8.3670   -1.2780   -1.1010 h1        1 MOL     -0.029278
    149 H69         6.3770   -0.6650   -2.7550 hc        1 MOL      0.158400
    150 H70         6.2780   -2.3440   -2.1000 hc        1 MOL      0.158400
    151 H71         5.2140   -1.0590   -1.5120 hc        1 MOL      0.158400
    152 N14         8.1840    1.2270   -1.6090 n         1 MOL     -0.529552
    153 C49         8.4070    2.6800   -1.6250 c3        1 MOL     -0.038364
    154 C50         9.0380    3.2800   -0.3270 c         1 MOL      0.465958
    155 O20         9.0110    4.4720   -0.0440 o         1 MOL     -0.491708
    156 C51         7.1060    3.4820   -1.9990 c3        1 MOL      0.226229
    157 C52         6.8890    3.3240   -3.5640 c3        1 MOL     -0.140071
    158 C53         5.6690    4.0620   -4.0690 c         1 MOL      0.658751
    159 O21         5.1450    4.9410   -3.3830 o         1 MOL     -0.727475
    160 O22         5.2220    3.7140   -5.2000 o         1 MOL     -0.727475
    161 H72         8.4420    0.7490   -2.4570 hn        1 MOL      0.319008
    162 H73         9.1360    2.8290   -2.4210 h1        1 MOL      0.082649
    163 H74         7.1490    4.5610   -1.8540 hc        1 MOL     -0.031304
    164 H75         6.2330    3.1130   -1.4740 hc        1 MOL     -0.031304
    165 H76         6.8040    2.3110   -3.9620 hc        1 MOL     -0.002627
    166 H77         7.7660    3.7360   -4.0720 hc        1 MOL     -0.002627
    167 N15         9.7510    2.4550    0.4390 n         1 MOL     -0.411296
    168 C54         9.8660    2.6430    1.8970 c3        1 MOL      0.038001
    169 H78         9.6300    3.6770    2.1490 h1        1 MOL      0.045179
    170 H79         9.1680    1.9770    2.4060 h1        1 MOL      0.045179
    171 H80        10.8830    2.4150    2.2140 h1        1 MOL      0.045179
    172 H81         9.9080    1.5050    0.1060 hn        1 MOL      0.258776
    173 Ca1         1.0080    0.6850   -1.6840 Ca        1 MOL      1.743514
    174 O23         3.8150    1.5270   -1.0880 oh        1 MOL     -0.832310
    175 H82         4.0030    2.4640   -1.1010 ho        1 MOL      0.417828
    176 H83         4.1740    1.2170   -0.2650 ho        1 MOL      0.417828
    177 O24         3.0830   -0.0820   -3.3150 oh        1 MOL     -0.832310
    178 H84         3.6890    0.4830   -2.8360 ho        1 MOL      0.417828
    179 H85         3.4190   -0.0990   -4.2030 ho        1 MOL      0.417828
    180 O25         1.4230    2.6820   -3.3350 oh        1 MOL     -0.832310
    181 H86         1.6080    3.5570   -2.9740 ho        1 MOL      0.417828
    182 H87         1.7130    2.7310   -4.2450 ho        1 MOL      0.417828
    183 O26         0.3540   -0.2190   -4.2370 oh        1 MOL     -0.832310
    184 H88         0.4530   -0.9470   -4.8510 ho        1 MOL      0.417828
    185 H89        -0.3660    0.2910   -4.5930 ho        1 MOL      0.417828
    186 O27         1.1690    3.1170   -0.5300 oh        1 MOL     -0.832310
    187 H90         1.9050    3.7040   -0.7000 ho        1 MOL      0.417828
    188 H91         0.5680    3.6380    0.0110 ho        1 MOL      0.417828
@<TRIPOS>BOND
     1    1    2 1   
     2    1    4 1   
     3    1    5 1   
     4    1    6 1   
     5    2    3 2   
     6    2    7 1   
     7    7    8 1   
     8    7   15 1   
     9    8    9 1   
    10    8   11 1   
    11    8   16 1   
    12    9   10 2   
    13    9   19 1   
    14   11   12 1   
    15   11   17 1   
    16   11   18 1   
    17   12   13 1   
    18   12   14 1   
    19   19   20 1   
    20   19   28 1   
    21   20   21 1   
    22   20   23 1   
    23   20   29 1   
    24   21   22 2   
    25   21   41 1   
    26   23   24 1   
    27   23   30 1   
    28   23   31 1   
    29   24   25 1   
    30   24   32 1   
    31   24   33 1   
    32   25   26 1   
    33   25   34 1   
    34   25   35 1   
    35   26   27 1   
    36   26   36 1   
    37   26   37 1   
    38   27   38 1   
    39   27   39 1   
    40   27   40 1   
    41   41   42 1   
    42   41   49 1   
    43   42   43 1   
    44   42   45 1   
    45   42   50 1   
    46   43   44 2   
    47   43   53 1   
    48   45   46 1   
    49   45   51 1   
    50   45   52 1   
    51   46   47 1   
    52   46   48 1   
    53   53   54 1   
    54   53   57 1   
    55   54   55 1   
    56   54   58 1   
    57   54   59 1   
    58   55   56 2   
    59   55   60 1   
    60   60   61 1   
    61   60   68 1   
    62   61   62 1   
    63   61   64 1   
    64   61   69 1   
    65   62   63 2   
    66   62   74 1   
    67   64   65 1   
    68   64   70 1   
    69   64   71 1   
    70   65   66 1   
    71   65   67 2   
    72   66   72 1   
    73   66   73 1   
    74   74   75 1   
    75   74   78 1   
    76   75   76 1   
    77   75   79 1   
    78   75   80 1   
    79   76   77 2   
    80   76   81 1   
    81   81   82 1   
    82   81   93 1   
    83   82   83 1   
    84   82   85 1   
    85   82   94 1   
    86   83   84 2   
    87   83  102 1   
    88   85   86 1   
    89   85   95 1   
    90   85   96 1   
    91   86   87 ar  
    92   86   88 ar  
    93   87   89 ar  
    94   87   97 1   
    95   88   90 ar  
    96   88   98 1   
    97   89   91 ar  
    98   89   99 1   
    99   90   91 ar  
   100   90  100 1   
   101   91   92 1   
   102   92  101 1   
   103  102  103 1   
   104  102  110 1   
   105  103  104 1   
   106  103  106 1   
   107  103  111 1   
   108  104  105 2   
   109  104  121 1   
   110  106  107 1   
   111  106  108 1   
   112  106  112 1   
   113  107  109 1   
   114  107  113 1   
   115  107  114 1   
   116  108  115 1   
   117  108  116 1   
   118  108  117 1   
   119  109  118 1   
   120  109  119 1   
   121  109  120 1   
   122  121  122 1   
   123  121  127 1   
   124  122  123 1   
   125  122  125 1   
   126  122  128 1   
   127  123  124 2   
   128  123  132 1   
   129  125  126 1   
   130  125  129 1   
   131  125  130 1   
   132  126  131 1   
   133  132  133 1   
   134  132  137 1   
   135  133  134 1   
   136  133  136 1   
   137  133  138 1   
   138  134  135 2   
   139  134  142 1   
   140  136  139 1   
   141  136  140 1   
   142  136  141 1   
   143  142  143 1   
   144  142  147 1   
   145  143  144 1   
   146  143  146 1   
   147  143  148 1   
   148  144  145 2   
   149  144  152 1   
   150  146  149 1   
   151  146  150 1   
   152  146  151 1   
   153  152  153 1   
   154  152  161 1   
   155  153  154 1   
   156  153  156 1   
   157  153  162 1   
   158  154  155 2   
   159  154  167 1   
   160  156  157 1   
   161  156  163 1   
   162  156  164 1   
   163  157  158 1   
   164  157  165 1   
   165  157  166 1   
   166  158  159 1   
   167  158  160 1   
   168  167  168 1   
   169  167  172 1   
   170  168  169 1   
   171  168  170 1   
   172  168  171 1   
   173  174  175 1   
   174  174  176 1   
   175  177  178 1   
   176  177  179 1   
   177  180  181 1   
   178  180  182 1   
   179  183  184 1   
   180  183  185 1   
   181  186  187 1   
   182  186  188 1   
@<TRIPOS>SUBSTRUCTURE
     1 MOL         1 TEMP              0 ****  ****    0 ROOT
