@<TRIPOS>MOLECULE
MOL
  186   183     1     0     0
SMALL
resp


@<TRIPOS>ATOM
      1 C1        -12.3370    3.7770    4.2480 c3        1 MOL     -0.439858
      2 C2        -12.2110    2.9190    2.9710 c         1 MOL      0.534470
      3 O1        -12.7460    1.7740    3.0290 o         1 MOL     -0.572762
      4 H1        -11.5130    4.4900    4.2890 hc        1 MOL      0.115496
      5 H2        -13.2830    4.3180    4.2320 hc        1 MOL      0.115496
      6 H3        -12.3020    3.1310    5.1260 hc        1 MOL      0.115496
      7 N1        -11.6220    3.4250    1.9750 n         1 MOL      0.063275
      8 C3        -11.5690    2.8320    0.6430 c3        1 MOL     -0.687607
      9 C4        -10.3640    1.8670    0.4870 c         1 MOL      0.440813
     10 O2         -9.3320    2.0420    1.1790 o         1 MOL     -0.517390
     11 C5        -11.5730    3.9670   -0.3680 c3        1 MOL      0.105292
     12 C6        -10.6510    5.1530   -0.2510 c         1 MOL      0.598580
     13 O3         -9.7350    5.2260    0.5670 o         1 MOL     -0.696491
     14 O4        -10.6590    6.0850   -1.1140 o         1 MOL     -0.696491
     15 H4        -11.0950    4.2860    2.0870 hn        1 MOL      0.110332
     16 H5        -12.4510    2.2640    0.3690 h1        1 MOL      0.215810
     17 H6        -12.5660    4.3960   -0.4440 hc        1 MOL      0.076504
     18 H7        -11.4760    3.5200   -1.3610 hc        1 MOL      0.076504
     19 N2        -10.5110    0.8090   -0.3700 n         1 MOL     -0.122110
     20 C7         -9.6050   -0.3240   -0.3540 c3        1 MOL     -0.091046
     21 C8         -8.3180    0.0270   -1.0860 c         1 MOL      0.384803
     22 O5         -8.0710   -0.6560   -2.0890 o         1 MOL     -0.403105
     23 C9        -10.3820   -1.5890   -0.8160 c3        1 MOL      0.033205
     24 C10        -9.6370   -2.9020   -0.6230 c3        1 MOL      0.256138
     25 C11       -10.3560   -4.1410   -1.0010 c3        1 MOL     -0.161114
     26 C12        -9.5100   -5.4110   -0.8940 c3        1 MOL      0.099635
     27 N3         -9.0140   -5.7650    0.4810 n4        1 MOL     -0.530136
     28 H8        -11.3710    0.6040   -0.8650 hn        1 MOL      0.237562
     29 H9         -9.3830   -0.4490    0.7070 h1        1 MOL      0.068060
     30 H10       -10.8290   -1.4390   -1.7980 hc        1 MOL     -0.001346
     31 H11       -11.2190   -1.5980   -0.1250 hc        1 MOL     -0.001346
     32 H12        -9.3860   -2.9120    0.4350 hc        1 MOL     -0.072120
     33 H13        -8.7370   -2.8000   -1.2270 hc        1 MOL     -0.072120
     34 H14       -10.6020   -4.0100   -2.0550 hc        1 MOL      0.051260
     35 H15       -11.2330   -4.2820   -0.3670 hc        1 MOL      0.051260
     36 H16        -8.6350   -5.3260   -1.5420 hx        1 MOL      0.077012
     37 H17       -10.1780   -6.2220   -1.2040 hx        1 MOL      0.077012
     38 H18        -8.7390   -4.9760    1.0300 hn        1 MOL      0.352462
     39 H19        -9.7520   -6.2620    0.9680 hn        1 MOL      0.352462
     40 H20        -8.2690   -6.4500    0.4250 hn        1 MOL      0.352462
     41 N4         -7.6150    1.0260   -0.6070 n         1 MOL      0.249653
     42 C13        -6.2890    1.2300   -1.0550 c3        1 MOL     -1.508972
     43 C14        -5.4580    1.7790    0.0790 c         1 MOL      0.841943
     44 O6         -5.8600    2.4560    0.9870 o         1 MOL     -0.659406
     45 C15        -6.2240    1.9490   -2.3830 c3        1 MOL     -0.069198
     46 C16        -7.2440    3.1260   -2.3850 c         1 MOL      0.631395
     47 O7         -8.1050    3.2080   -3.2990 o         1 MOL     -0.631682
     48 O8         -7.1180    3.9470   -1.4580 o         1 MOL     -0.631682
     49 H21        -7.8120    1.4330    0.2940 hn        1 MOL      0.225916
     50 H22        -5.8510    0.2430   -1.2260 h1        1 MOL      0.594805
     51 H23        -6.4720    1.3210   -3.2400 hc        1 MOL      0.124820
     52 H24        -5.2110    2.3080   -2.5790 hc        1 MOL      0.124820
     53 N5         -4.1340    1.5960    0.1350 n         1 MOL     -0.459298
     54 C17        -3.3830    0.5390   -0.5150 c3        1 MOL     -0.061672
     55 C18        -3.7520   -0.8110    0.0130 c         1 MOL      0.609158
     56 O9         -4.1310   -0.9770    1.2250 o         1 MOL     -0.527907
     57 H25        -3.6360    1.9060    0.9560 hn        1 MOL      0.291122
     58 H26        -2.3330    0.7780   -0.3540 h1        1 MOL      0.095484
     59 H27        -3.6040    0.5780   -1.5760 h1        1 MOL      0.095484
     60 N6         -3.7490   -1.7730   -0.9040 n         1 MOL     -0.557735
     61 C19        -4.4140   -3.1320   -0.8600 c3        1 MOL      0.042023
     62 C20        -3.3860   -4.2010   -1.0920 c         1 MOL      0.518953
     63 O10        -3.3390   -5.2140   -0.3500 o         1 MOL     -0.520472
     64 C21        -5.4810   -3.2720   -1.9990 c3        1 MOL      0.070911
     65 C22        -6.2630   -4.5980   -2.0710 c         1 MOL      0.725040
     66 O11        -6.7470   -4.9930   -3.1870 o         1 MOL     -0.690506
     67 O12        -6.4120   -5.2270   -0.9860 o         1 MOL     -0.690506
     68 H28        -3.2590   -1.6010   -1.7760 hn        1 MOL      0.209865
     69 H29        -4.8720   -3.3140    0.1140 h1        1 MOL      0.049511
     70 H30        -4.9670   -3.3480   -2.9550 hc        1 MOL     -0.057694
     71 H31        -6.1290   -2.3950   -2.0300 hc        1 MOL     -0.057694
     72 N7         -2.5570   -4.0060   -2.0800 n         1 MOL     -0.353245
     73 C23        -1.6080   -5.0540   -2.5370 c3        1 MOL     -0.227961
     74 C24        -0.2870   -5.1540   -1.7480 c         1 MOL      0.547130
     75 O13         0.7330   -5.2000   -2.3600 o         1 MOL     -0.540768
     76 H32        -2.7760   -3.2730   -2.7410 hn        1 MOL      0.344577
     77 H33        -1.1930   -4.8020   -3.5180 h1        1 MOL      0.128609
     78 H34        -2.0830   -6.0290   -2.5590 h1        1 MOL      0.128609
     79 N8         -0.2900   -4.9440   -0.4680 n         1 MOL     -0.345370
     80 C25         0.7670   -4.4680    0.4230 c3        1 MOL      0.117079
     81 C26         1.3350   -3.1260   -0.0760 c         1 MOL      0.376457
     82 O14         0.9130   -2.5910   -1.1380 o         1 MOL     -0.426569
     83 C27         0.2930   -4.4120    1.8430 c3        1 MOL      0.249339
     84 C28        -0.8850   -3.4240    1.9700 c3        1 MOL     -0.326690
     85 O15        -0.1280   -5.6300    2.4080 oh        1 MOL     -0.630108
     86 H35        -1.2220   -4.8940   -0.0910 hn        1 MOL      0.215623
     87 H36         1.5360   -5.2430    0.3220 h1        1 MOL      0.060934
     88 H37         1.1680   -4.0060    2.3500 h1        1 MOL     -0.015816
     89 H38        -0.5200   -5.4850    3.2700 ho        1 MOL      0.423085
     90 H39        -1.0450   -3.4370    3.0500 hc        1 MOL      0.091130
     91 H40        -0.6010   -2.4410    1.5880 hc        1 MOL      0.091130
     92 H41        -1.7260   -3.8760    1.4490 hc        1 MOL      0.091130
     93 N9          2.3530   -2.6040    0.6960 n         1 MOL     -0.186340
     94 C29         2.9690   -1.2660    0.3470 c3        1 MOL     -0.355579
     95 C30         4.5370   -1.2580    0.3540 c         1 MOL      0.739068
     96 O16         5.1050   -0.2320    0.0170 o         1 MOL     -0.550460
     97 C31         2.4170   -0.1270    1.2300 c3        1 MOL      0.322693
     98 C32         2.7990   -0.2990    2.7070 c3        1 MOL      0.035857
     99 C33         0.9010    0.1210    1.1520 c3        1 MOL     -0.167748
    100 C34         2.4520    0.8850    3.5600 c3        1 MOL     -0.328559
    101 H42         2.8050   -3.1430    1.4260 hn        1 MOL      0.172131
    102 H43         2.8180   -1.1450   -0.7340 h1        1 MOL      0.155558
    103 H44         2.8840    0.7510    0.8000 hc        1 MOL     -0.017346
    104 H45         3.8720   -0.4310    2.8080 hc        1 MOL      0.001798
    105 H46         2.3100   -1.2060    3.0430 hc        1 MOL      0.001798
    106 H47         0.4270   -0.4770    1.9200 hc        1 MOL      0.025323
    107 H48         0.8190    1.1990    1.3350 hc        1 MOL      0.025323
    108 H49         0.6070   -0.1700    0.1460 hc        1 MOL      0.025323
    109 H50         1.3850    1.0880    3.6670 hc        1 MOL      0.086279
    110 H51         2.9950    0.8520    4.5030 hc        1 MOL      0.086279
    111 H52         2.7520    1.7370    2.9610 hc        1 MOL      0.086279
    112 N10         5.1160   -2.3990    0.7230 n         1 MOL     -0.644228
    113 C35         6.4600   -2.8450    0.3100 c3        1 MOL     -0.049466
    114 C36         7.5360   -2.8360    1.4300 c         1 MOL      0.756305
    115 O17         7.2450   -3.2230    2.5450 o         1 MOL     -0.558475
    116 C37         6.3400   -4.3110   -0.1720 c3        1 MOL      0.223222
    117 C38         5.2020   -4.3900   -1.1880 c3        1 MOL     -0.186869
    118 O18         7.4780   -4.5960   -0.9100 oh        1 MOL     -0.638446
    119 H53         4.5090   -3.1530    0.9930 hn        1 MOL      0.335491
    120 H54         6.8270   -2.2920   -0.5540 h1        1 MOL      0.138954
    121 H55         6.0960   -4.9490    0.6740 h1        1 MOL      0.027173
    122 H56         7.3370   -5.4910   -1.2150 ho        1 MOL      0.421209
    123 H57         5.1970   -3.5000   -1.8210 hc        1 MOL      0.058811
    124 H58         5.3690   -5.2810   -1.7860 hc        1 MOL      0.058811
    125 H59         4.2050   -4.5260   -0.7870 hc        1 MOL      0.058811
    126 N11         8.7620   -2.4110    1.0950 n         1 MOL     -0.714982
    127 C39         9.8230   -2.0640    2.0780 c3        1 MOL      0.187411
    128 C40        10.1960   -0.5760    2.1370 c         1 MOL      0.588938
    129 O19        10.3990   -0.0050    3.2240 o         1 MOL     -0.544308
    130 C41        11.0720   -2.8840    1.7920 c3        1 MOL      0.229713
    131 C42        12.1860   -2.6460    2.8790 c3        1 MOL     -0.444143
    132 O20        11.5860   -2.5250    0.4960 oh        1 MOL     -0.609521
    133 H60         8.9170   -2.1850    0.1140 hn        1 MOL      0.365231
    134 H61         9.5460   -2.2170    3.1170 h1        1 MOL      0.077145
    135 H62        10.6480   -3.8860    1.7220 h1        1 MOL      0.046482
    136 H63        12.2430   -3.2010    0.3200 ho        1 MOL      0.366101
    137 H64        12.9420   -3.4070    2.7160 hc        1 MOL      0.121884
    138 H65        12.6510   -1.6670    2.7020 hc        1 MOL      0.121884
    139 H66        11.7040   -2.7940    3.8460 hc        1 MOL      0.121884
    140 N12         9.9590    0.1540    0.9790 n         1 MOL     -0.414203
    141 C43        10.3600    1.5460    0.8690 c3        1 MOL     -0.065859
    142 C44         9.6400    2.2420   -0.3100 c         1 MOL      0.740599
    143 O21         9.3990    1.6140   -1.3140 o         1 MOL     -0.558645
    144 C45        11.9070    1.6830    0.7200 c3        1 MOL     -0.324886
    145 C46        12.5250    1.0780   -0.5780 c3        1 MOL      0.153195
    146 C47        14.0360    0.9920   -0.5780 c3        1 MOL     -0.049093
    147 C48        14.6090    0.4350   -1.8840 c3        1 MOL     -0.099446
    148 N13        14.3650   -1.0510   -1.9700 n4        1 MOL     -0.204804
    149 H67         9.5300   -0.3270    0.2100 hn        1 MOL      0.215864
    150 H68         9.9730    2.0020    1.7750 h1        1 MOL      0.127987
    151 H69        12.4400    1.1480    1.5010 hc        1 MOL      0.111269
    152 H70        12.1320    2.7320    0.9270 hc        1 MOL      0.111269
    153 H71        12.2440    1.6320   -1.4660 hc        1 MOL      0.020688
    154 H72        12.1320    0.0750   -0.7380 hc        1 MOL      0.020688
    155 H73        14.3890    0.3820    0.2520 hc        1 MOL      0.042341
    156 H74        14.4410    1.9950   -0.4330 hc        1 MOL      0.042341
    157 H75        15.6800    0.6470   -2.0110 hx        1 MOL      0.120204
    158 H76        14.0540    0.9400   -2.6700 hx        1 MOL      0.120204
    159 H77        14.8640   -1.3960   -2.7740 hn        1 MOL      0.231192
    160 H78        14.7670   -1.6820   -1.2920 hn        1 MOL      0.231192
    161 H79        13.3680   -1.1390   -2.1010 hn        1 MOL      0.231192
    162 N14         9.3780    3.5390   -0.1910 n         1 MOL     -0.747689
    163 C49         8.6020    4.3570   -1.1850 c3        1 MOL      0.489191
    164 C50         7.1070    4.1930   -1.0330 c         1 MOL      0.385842
    165 O22         6.5320    3.9220   -2.0930 o         1 MOL     -0.549821
    166 C51         9.1400    5.7540   -1.1750 c3        1 MOL     -0.031676
    167 C52         8.4410    6.7940   -2.0060 c3        1 MOL     -0.234388
    168 C53         9.3460    8.0700   -2.0790 c         1 MOL      0.661040
    169 O23         9.7960    8.4930   -3.1590 o         1 MOL     -0.625796
    170 O24         9.7770    8.6120   -1.0030 o         1 MOL     -0.625796
    171 H80         9.7040    4.0230    0.6380 hn        1 MOL      0.314240
    172 H81         8.9260    3.9630   -2.1520 h1        1 MOL     -0.003285
    173 H82        10.1650    5.6230   -1.5170 hc        1 MOL      0.012078
    174 H83         9.2430    6.1270   -0.1670 hc        1 MOL      0.012078
    175 H84         7.4340    6.9960   -1.6620 hc        1 MOL      0.051312
    176 H85         8.2310    6.4110   -3.0100 hc        1 MOL      0.051312
    177 N15         6.3790    4.3570    0.0740 n         1 MOL     -0.343627
    178 C54         6.7570    4.9240    1.3740 c3        1 MOL     -0.108123
    179 H86         7.5340    5.6740    1.2310 h1        1 MOL      0.065150
    180 H87         5.8850    5.3870    1.8360 h1        1 MOL      0.065150
    181 H88         7.1330    4.1320    2.0210 h1        1 MOL      0.065150
    182 H89         5.4230    4.0370    0.1370 hn        1 MOL      0.296743
    183 Ca1        -7.1920    4.8450    0.8750 Ca        1 MOL      1.703771
    184 O25        -8.3340    3.5020    2.9570 oh        1 MOL     -0.906591
    185 H90        -8.3080    3.1990    3.8760 ho        1 MOL      0.428302
    186 H91        -8.8990    2.8630    2.5120 ho        1 MOL      0.428302
@<TRIPOS>BOND
     1    1    2 1   
     2    1    4 1   
     3    1    5 1   
     4    1    6 1   
     5    2    3 2   
     6    2    7 1   
     7    7    8 1   
     8    7   15 1   
     9    8    9 1   
    10    8   11 1   
    11    8   16 1   
    12    9   10 2   
    13    9   19 1   
    14   11   12 1   
    15   11   17 1   
    16   11   18 1   
    17   12   13 1   
    18   12   14 1   
    19   19   20 1   
    20   19   28 1   
    21   20   21 1   
    22   20   23 1   
    23   20   29 1   
    24   21   22 2   
    25   21   41 1   
    26   23   24 1   
    27   23   30 1   
    28   23   31 1   
    29   24   25 1   
    30   24   32 1   
    31   24   33 1   
    32   25   26 1   
    33   25   34 1   
    34   25   35 1   
    35   26   27 1   
    36   26   36 1   
    37   26   37 1   
    38   27   38 1   
    39   27   39 1   
    40   27   40 1   
    41   41   42 1   
    42   41   49 1   
    43   42   43 1   
    44   42   45 1   
    45   42   50 1   
    46   43   44 2   
    47   43   53 1   
    48   45   46 1   
    49   45   51 1   
    50   45   52 1   
    51   46   47 1   
    52   46   48 1   
    53   53   54 1   
    54   53   57 1   
    55   54   55 1   
    56   54   58 1   
    57   54   59 1   
    58   55   56 2   
    59   55   60 1   
    60   60   61 1   
    61   60   68 1   
    62   61   62 1   
    63   61   64 1   
    64   61   69 1   
    65   62   63 2   
    66   62   72 1   
    67   64   65 1   
    68   64   70 1   
    69   64   71 1   
    70   65   66 1   
    71   65   67 1   
    72   72   73 1   
    73   72   76 1   
    74   73   74 1   
    75   73   77 1   
    76   73   78 1   
    77   74   75 2   
    78   74   79 1   
    79   79   80 1   
    80   79   86 1   
    81   80   81 1   
    82   80   83 1   
    83   80   87 1   
    84   81   82 2   
    85   81   93 1   
    86   83   84 1   
    87   83   85 1   
    88   83   88 1   
    89   84   90 1   
    90   84   91 1   
    91   84   92 1   
    92   85   89 1   
    93   93   94 1   
    94   93  101 1   
    95   94   95 1   
    96   94   97 1   
    97   94  102 1   
    98   95   96 2   
    99   95  112 1   
   100   97   98 1   
   101   97   99 1   
   102   97  103 1   
   103   98  100 1   
   104   98  104 1   
   105   98  105 1   
   106   99  106 1   
   107   99  107 1   
   108   99  108 1   
   109  100  109 1   
   110  100  110 1   
   111  100  111 1   
   112  112  113 1   
   113  112  119 1   
   114  113  114 1   
   115  113  116 1   
   116  113  120 1   
   117  114  115 2   
   118  114  126 1   
   119  116  117 1   
   120  116  118 1   
   121  116  121 1   
   122  117  123 1   
   123  117  124 1   
   124  117  125 1   
   125  118  122 1   
   126  126  127 1   
   127  126  133 1   
   128  127  128 1   
   129  127  130 1   
   130  127  134 1   
   131  128  129 2   
   132  128  140 1   
   133  130  131 1   
   134  130  132 1   
   135  130  135 1   
   136  131  137 1   
   137  131  138 1   
   138  131  139 1   
   139  132  136 1   
   140  140  141 1   
   141  140  149 1   
   142  141  142 1   
   143  141  144 1   
   144  141  150 1   
   145  142  143 2   
   146  142  162 1   
   147  144  145 1   
   148  144  151 1   
   149  144  152 1   
   150  145  146 1   
   151  145  153 1   
   152  145  154 1   
   153  146  147 1   
   154  146  155 1   
   155  146  156 1   
   156  147  148 1   
   157  147  157 1   
   158  147  158 1   
   159  148  159 1   
   160  148  160 1   
   161  148  161 1   
   162  162  163 1   
   163  162  171 1   
   164  163  164 1   
   165  163  166 1   
   166  163  172 1   
   167  164  165 2   
   168  164  177 1   
   169  166  167 1   
   170  166  173 1   
   171  166  174 1   
   172  167  168 1   
   173  167  175 1   
   174  167  176 1   
   175  168  169 1   
   176  168  170 1   
   177  177  178 1   
   178  177  182 1   
   179  178  179 1   
   180  178  180 1   
   181  178  181 1   
   182  184  185 1   
   183  184  186 1   
@<TRIPOS>SUBSTRUCTURE
     1 MOL         1 TEMP              0 ****  ****    0 ROOT
