@<TRIPOS>MOLECULE
MOL
  181   177     1     0     0
SMALL
resp


@<TRIPOS>ATOM
      1 C1          4.4050   -2.7400    3.5500 c3        1 MOL     -0.481864
      2 C2          5.8250   -2.2200    3.2170 c         1 MOL      0.840901
      3 O1          6.0070   -1.0670    2.9660 o         1 MOL     -0.648368
      4 H1          4.4580   -3.7970    3.8130 hc        1 MOL      0.120643
      5 H2          3.9990   -2.1780    4.3910 hc        1 MOL      0.120643
      6 H3          3.7580   -2.6140    2.6820 hc        1 MOL      0.120643
      7 N1          6.8350   -3.0600    3.2010 n         1 MOL     -0.717235
      8 C3          8.2110   -2.6230    2.9950 c3        1 MOL      0.247405
      9 C4          8.5260   -2.5430    1.5070 c         1 MOL      0.577335
     10 O2          8.7620   -3.5370    0.7930 o         1 MOL     -0.591825
     11 C5          9.1740   -3.5900    3.7560 c3        1 MOL     -0.215281
     12 C6         10.6370   -3.3010    3.5200 c         1 MOL      0.752874
     13 O3         11.5050   -3.9450    4.1470 o         1 MOL     -0.740021
     14 O4         10.8970   -2.2810    2.8320 o         1 MOL     -0.740021
     15 H4          6.6930   -4.0480    3.3000 hn        1 MOL      0.339797
     16 H5          8.4610   -1.6230    3.3630 h1        1 MOL      0.030008
     17 H6          9.0270   -4.6430    3.5160 hc        1 MOL      0.018134
     18 H7          9.0430   -3.5220    4.8280 hc        1 MOL      0.018134
     19 N2          8.6940   -1.3430    0.9240 n         1 MOL     -0.445220
     20 C7          9.0180   -1.1590   -0.5010 c3        1 MOL      0.304710
     21 C8          7.7550   -1.2810   -1.3910 c         1 MOL      0.277496
     22 O5          7.8920   -1.1060   -2.6070 o         1 MOL     -0.472484
     23 C9          9.6060    0.2480   -0.6830 c3        1 MOL     -0.362160
     24 H8          8.7810   -0.5410    1.5230 hn        1 MOL      0.252449
     25 H9          9.7780   -1.8650   -0.8220 h1        1 MOL      0.057278
     26 H10        10.3550    0.4320    0.0840 hc        1 MOL      0.091044
     27 H11        10.0470    0.1870   -1.6810 hc        1 MOL      0.091044
     28 H12         8.7360    0.9100   -0.5930 hc        1 MOL      0.091044
     29 N3          6.5470   -1.3540   -0.7460 n         1 MOL     -0.353306
     30 C10         5.2840   -1.1430   -1.4420 c3        1 MOL      0.518187
     31 C11         5.2850    0.1730   -2.2370 c         1 MOL      0.342258
     32 O6          5.3020    0.1990   -3.4570 o         1 MOL     -0.495188
     33 C12         4.7950   -2.3280   -2.1810 c3        1 MOL     -0.270125
     34 C13         3.3890   -2.2320   -2.7180 c         1 MOL      0.832012
     35 O7          2.9210   -2.8720   -3.6760 o         1 MOL     -0.806328
     36 O8          2.5790   -1.4700   -2.1250 o         1 MOL     -0.806328
     37 H13         6.5080   -1.5260    0.2480 hn        1 MOL      0.168358
     38 H14         4.5470   -1.0260   -0.6440 h1        1 MOL     -0.068066
     39 H15         4.8470   -3.0950   -1.3990 hc        1 MOL      0.036799
     40 H16         5.5240   -2.4410   -2.9810 hc        1 MOL      0.036799
     41 N4          5.2770    1.2690   -1.4950 n         1 MOL     -0.168889
     42 C14         5.5310    2.6700   -1.8820 c3        1 MOL     -0.291953
     43 C15         4.3160    3.4310   -2.4690 c         1 MOL      0.587537
     44 O9          4.6230    4.5360   -3.0120 o         1 MOL     -0.571858
     45 H17         5.3260    1.0640   -0.5110 hn        1 MOL      0.172819
     46 H18         6.2550    2.5930   -2.6910 h1        1 MOL      0.138252
     47 H19         5.9820    3.0870   -0.9780 h1        1 MOL      0.138252
     48 N5          3.0550    2.9500   -2.2660 n         1 MOL     -0.359562
     49 C16         1.9100    3.6810   -2.7840 c3        1 MOL      0.175879
     50 C17         1.6440    4.9710   -1.9600 c         1 MOL      0.444879
     51 O10         1.7380    4.9070   -0.7140 o         1 MOL     -0.533197
     52 C18         0.6990    2.8100   -2.9950 c3        1 MOL     -0.341047
     53 C19        -0.6570    3.4530   -3.2970 c         1 MOL      0.594651
     54 N6         -1.4030    3.6740   -2.2220 n         1 MOL     -0.655118
     55 O11        -0.9770    3.7260   -4.4300 o         1 MOL     -0.570966
     56 H20         2.8460    2.1140   -1.7370 hn        1 MOL      0.232137
     57 H21         2.1840    4.1030   -3.7450 h1        1 MOL      0.014982
     58 H22         0.5220    2.3370   -2.0220 hc        1 MOL      0.133016
     59 H23         0.8960    1.9780   -3.6750 hc        1 MOL      0.133016
     60 H24        -1.0260    3.3100   -1.3610 hn        1 MOL      0.325632
     61 H25        -2.2370    4.2390   -2.3280 hn        1 MOL      0.325632
     62 N7          1.2680    6.0700   -2.5520 n         1 MOL     -0.338403
     63 C20         0.8760    7.3420   -1.8880 c3        1 MOL     -0.009209
     64 C21        -0.4160    7.1490   -1.0150 c         1 MOL      0.391495
     65 O12        -1.4870    7.0220   -1.5850 o         1 MOL     -0.479878
     66 H26         1.3120    6.0670   -3.5590 hn        1 MOL      0.280252
     67 H27         0.7100    8.2200   -2.5040 h1        1 MOL      0.058554
     68 H28         1.6210    7.6910   -1.1810 h1        1 MOL      0.058554
     69 N8         -0.2880    7.3760    0.2950 n         1 MOL     -0.107016
     70 C22        -1.4640    7.4760    1.1710 c3        1 MOL     -0.599274
     71 C23        -1.9800    6.1510    1.8160 c         1 MOL      0.591512
     72 O13        -3.0940    6.1220    2.3760 o         1 MOL     -0.560589
     73 C24        -1.1420    8.4730    2.2750 c3        1 MOL      0.655227
     74 C25         0.0160    7.9500    3.2190 c3        1 MOL     -0.390645
     75 O14        -0.7760    9.7040    1.8100 oh        1 MOL     -0.645364
     76 H29         0.6140    7.6420    0.6530 hn        1 MOL      0.220097
     77 H30        -2.2930    7.8220    0.5400 h1        1 MOL      0.222572
     78 H31        -2.0000    8.6210    2.9290 h1        1 MOL     -0.004121
     79 H32         0.0860    9.5720    1.4080 ho        1 MOL      0.353524
     80 H33        -0.3760    8.0010    4.2290 hc        1 MOL      0.087860
     81 H34         0.2580    6.9600    2.8180 hc        1 MOL      0.087860
     82 H35         0.8320    8.6760    3.2280 hc        1 MOL      0.087860
     83 N9         -1.2670    5.0100    1.6960 n         1 MOL     -0.169349
     84 C26        -1.6770    3.7180    2.2370 c3        1 MOL     -0.098436
     85 C27        -1.5460    2.6240    1.1120 c         1 MOL      0.377755
     86 O15        -0.5850    2.6280    0.3010 o         1 MOL     -0.376829
     87 C28        -0.8900    3.4050    3.5350 c3        1 MOL      0.089941
     88 C29         0.5990    3.6270    3.3100 c3        1 MOL      0.335913
     89 C30        -1.3550    4.3690    4.6530 c3        1 MOL     -0.432228
     90 C31         1.4730    2.7420    4.2200 c3        1 MOL     -0.250294
     91 H36        -0.3430    5.1120    1.3190 hn        1 MOL      0.135685
     92 H37        -2.7540    3.7550    2.4280 h1        1 MOL      0.089089
     93 H38        -1.0250    2.3460    3.7640 hc        1 MOL      0.013921
     94 H39         0.8590    4.6710    3.4760 hc        1 MOL     -0.073287
     95 H40         0.8340    3.4490    2.2570 hc        1 MOL     -0.073287
     96 H41        -0.7790    4.2340    5.5650 hc        1 MOL      0.105324
     97 H42        -1.3910    5.3910    4.2800 hc        1 MOL      0.105324
     98 H43        -2.3820    4.2150    4.9450 hc        1 MOL      0.105324
     99 H44         1.2490    1.6970    4.0430 hc        1 MOL      0.055866
    100 H45         2.5400    2.9150    4.0340 hc        1 MOL      0.055866
    101 H46         1.2170    2.9420    5.2590 hc        1 MOL      0.055866
    102 N10        -2.3120    1.4880    1.2690 n         1 MOL     -0.429521
    103 C32        -2.3320    0.3160    0.4090 c3        1 MOL      0.150328
    104 C33        -3.7320   -0.3720    0.2030 c         1 MOL      0.533558
    105 O16        -3.8210   -1.5350   -0.1550 o         1 MOL     -0.468379
    106 C34        -1.1960   -0.6400    0.6880 c3        1 MOL     -0.261819
    107 C35        -0.7600   -1.4580   -0.5090 c         1 MOL      0.662309
    108 O17        -1.2890   -1.3320   -1.6380 o         1 MOL     -0.724329
    109 O18         0.1880   -2.2900   -0.4370 o         1 MOL     -0.724329
    110 H47        -2.9270    1.4030    2.0730 hn        1 MOL      0.266969
    111 H48        -2.1440    0.7630   -0.5630 h1        1 MOL      0.005789
    112 H49        -1.4630   -1.4020    1.4150 hc        1 MOL      0.110460
    113 H50        -0.3460   -0.0440    1.0280 hc        1 MOL      0.110460
    114 N11        -4.7700    0.3200    0.5420 n         1 MOL     -0.483032
    115 C36        -6.1680   -0.2080    0.2880 c3        1 MOL      0.277162
    116 C37        -6.6330   -1.4800    1.0040 c         1 MOL      0.083548
    117 O19        -6.5100   -1.5780    2.2550 o         1 MOL     -0.462565
    118 C38        -7.1900    1.0010    0.2790 c3        1 MOL     -0.210634
    119 C39        -8.5730    0.4870   -0.2500 ca        1 MOL      0.122862
    120 C40        -8.8790    0.4150   -1.6060 ca        1 MOL     -0.230126
    121 C41        -9.4760    0.0050    0.7140 ca        1 MOL     -0.230126
    122 C42       -10.1350   -0.0580   -1.9830 ca        1 MOL     -0.023617
    123 C43       -10.7030   -0.5170    0.3090 ca        1 MOL     -0.023617
    124 C44       -11.0960   -0.4810   -1.0920 ca        1 MOL     -0.196811
    125 H51        -4.6780    1.2900    0.8130 hn        1 MOL      0.261256
    126 H52        -6.1660   -0.5040   -0.7530 h1        1 MOL      0.012847
    127 H53        -6.7190    1.7810   -0.3300 hc        1 MOL      0.090568
    128 H54        -7.2200    1.4600    1.2650 hc        1 MOL      0.090568
    129 H55        -8.1760    0.7900   -2.3410 ha        1 MOL      0.142911
    130 H56        -9.2060    0.0310    1.7550 ha        1 MOL      0.142911
    131 H57       -10.3730    0.0140   -3.0280 ha        1 MOL      0.089648
    132 H58       -11.4390   -0.9310    0.9700 ha        1 MOL      0.089648
    133 H59       -12.0280   -0.9410   -1.4020 ha        1 MOL      0.128673
    134 N12        -7.1490   -2.4760    0.3050 n         1 MOL      0.189378
    135 C45        -7.4570   -3.7690    0.9780 c3        1 MOL     -0.010707
    136 C46        -6.2810   -4.5210    1.6580 c         1 MOL      0.407703
    137 O20        -6.5560   -5.3440    2.4930 o         1 MOL     -0.535247
    138 C47        -8.0240   -4.7510   -0.0980 c3        1 MOL     -0.082457
    139 C48        -7.4590   -4.1190   -1.3890 c3        1 MOL     -0.072236
    140 C49        -7.3790   -2.6020   -1.0970 c3        1 MOL     -0.138136
    141 H60        -8.2800   -3.5750    1.6650 h1        1 MOL      0.053366
    142 H61        -7.7750   -5.8080    0.0170 hc        1 MOL      0.052777
    143 H62        -9.1000   -4.6340   -0.0970 hc        1 MOL      0.052777
    144 H63        -6.4250   -4.4030   -1.5710 hc        1 MOL      0.042165
    145 H64        -8.1040   -4.2480   -2.2590 hc        1 MOL      0.042165
    146 H65        -6.5180   -2.1870   -1.6210 h1        1 MOL      0.065635
    147 H66        -8.2560   -1.9820   -1.2930 h1        1 MOL      0.065635
    148 N13        -5.0260   -4.1440    1.3310 n         1 MOL     -0.156937
    149 C50        -3.8100   -4.6360    1.9920 c3        1 MOL     -0.299977
    150 C51        -3.5560   -3.8600    3.3090 c         1 MOL      0.455693
    151 O21        -2.5500   -4.1780    3.9480 o         1 MOL     -0.546087
    152 C52        -2.6220   -4.4720    1.0790 c3        1 MOL      0.180891
    153 C53        -2.9570   -5.1450   -0.2720 c3        1 MOL     -0.161652
    154 C54        -1.6750   -5.0930   -1.1280 c         1 MOL      0.650771
    155 O22        -0.7170   -5.8860   -0.8830 o         1 MOL     -0.719039
    156 O23        -1.6600   -4.2810   -2.1160 o         1 MOL     -0.719039
    157 H67        -4.9590   -3.4260    0.6190 hn        1 MOL      0.204227
    158 H68        -3.9090   -5.6860    2.2730 h1        1 MOL      0.168336
    159 H69        -1.7460   -4.9250    1.5470 hc        1 MOL      0.034233
    160 H70        -2.3540   -3.4080    1.0100 hc        1 MOL      0.034233
    161 H71        -3.7470   -4.6430   -0.8280 hc        1 MOL      0.026668
    162 H72        -3.3430   -6.1470   -0.1060 hc        1 MOL      0.026668
    163 N14        -4.4240   -2.9730    3.7610 n         1 MOL     -0.185452
    164 C55        -4.1470   -2.0390    4.8890 c3        1 MOL     -0.099827
    165 H73        -4.1480   -1.0140    4.5200 h1        1 MOL      0.060870
    166 H74        -4.9170   -2.1520    5.6520 h1        1 MOL      0.060870
    167 H75        -3.1720   -2.2690    5.3200 h1        1 MOL      0.060870
    168 H76        -5.2340   -2.8170    3.1710 hn        1 MOL      0.167240
    169 Ca1         0.3450   -2.7490   -3.0190 Ca        1 MOL      1.803681
    170 O24        -1.7060   -2.8440   -4.7320 oh        1 MOL     -0.829506
    171 H77        -1.8860   -2.9910   -5.6660 ho        1 MOL      0.403136
    172 H78        -2.5650   -2.9030   -4.3140 ho        1 MOL      0.403136
    173 O25         0.6290   -0.6770   -4.7140 oh        1 MOL     -0.829506
    174 H79         0.1590   -0.5030   -5.5330 ho        1 MOL      0.403136
    175 H80         1.4850   -0.2600   -4.8340 ho        1 MOL      0.403136
    176 O26         0.1750   -4.9170   -4.7600 oh        1 MOL     -0.829506
    177 H81        -0.5330   -5.1030   -5.3720 ho        1 MOL      0.403136
    178 H82         0.7050   -5.7160   -4.7460 ho        1 MOL      0.403136
    179 O27         1.5750   -5.1620   -2.0870 oh        1 MOL     -0.829506
    180 H83         0.7940   -5.6590   -1.8190 ho        1 MOL      0.403136
    181 H84         2.2820   -5.5070   -1.5510 ho        1 MOL      0.403136
@<TRIPOS>BOND
     1    1    2 1   
     2    1    4 1   
     3    1    5 1   
     4    1    6 1   
     5    2    3 2   
     6    2    7 1   
     7    7    8 1   
     8    7   15 1   
     9    8    9 1   
    10    8   11 1   
    11    8   16 1   
    12    9   10 2   
    13    9   19 1   
    14   11   12 1   
    15   11   17 1   
    16   11   18 1   
    17   12   13 1   
    18   12   14 1   
    19   19   20 1   
    20   19   24 1   
    21   20   21 1   
    22   20   23 1   
    23   20   25 1   
    24   21   22 2   
    25   21   29 1   
    26   23   26 1   
    27   23   27 1   
    28   23   28 1   
    29   29   30 1   
    30   29   37 1   
    31   30   31 1   
    32   30   33 1   
    33   30   38 1   
    34   31   32 2   
    35   31   41 1   
    36   33   34 1   
    37   33   39 1   
    38   33   40 1   
    39   34   35 1   
    40   34   36 1   
    41   41   42 1   
    42   41   45 1   
    43   42   43 1   
    44   42   46 1   
    45   42   47 1   
    46   43   44 2   
    47   43   48 1   
    48   48   49 1   
    49   48   56 1   
    50   49   50 1   
    51   49   52 1   
    52   49   57 1   
    53   50   51 2   
    54   50   62 1   
    55   52   53 1   
    56   52   58 1   
    57   52   59 1   
    58   53   54 1   
    59   53   55 2   
    60   54   60 1   
    61   54   61 1   
    62   62   63 1   
    63   62   66 1   
    64   63   64 1   
    65   63   67 1   
    66   63   68 1   
    67   64   65 2   
    68   64   69 1   
    69   69   70 1   
    70   69   76 1   
    71   70   71 1   
    72   70   73 1   
    73   70   77 1   
    74   71   72 2   
    75   71   83 1   
    76   73   74 1   
    77   73   75 1   
    78   73   78 1   
    79   74   80 1   
    80   74   81 1   
    81   74   82 1   
    82   75   79 1   
    83   83   84 1   
    84   83   91 1   
    85   84   85 1   
    86   84   87 1   
    87   84   92 1   
    88   85   86 2   
    89   85  102 1   
    90   87   88 1   
    91   87   89 1   
    92   87   93 1   
    93   88   90 1   
    94   88   94 1   
    95   88   95 1   
    96   89   96 1   
    97   89   97 1   
    98   89   98 1   
    99   90   99 1   
   100   90  100 1   
   101   90  101 1   
   102  102  103 1   
   103  102  110 1   
   104  103  104 1   
   105  103  106 1   
   106  103  111 1   
   107  104  105 2   
   108  104  114 1   
   109  106  107 1   
   110  106  112 1   
   111  106  113 1   
   112  107  108 1   
   113  107  109 1   
   114  114  115 1   
   115  114  125 1   
   116  115  116 1   
   117  115  118 1   
   118  115  126 1   
   119  116  117 2   
   120  116  134 1   
   121  118  119 1   
   122  118  127 1   
   123  118  128 1   
   124  119  120 ar  
   125  119  121 ar  
   126  120  122 ar  
   127  120  129 1   
   128  121  123 ar  
   129  121  130 1   
   130  122  124 ar  
   131  122  131 1   
   132  123  124 ar  
   133  123  132 1   
   134  124  133 1   
   135  134  135 1   
   136  134  140 1   
   137  135  136 1   
   138  135  138 1   
   139  135  141 1   
   140  136  137 2   
   141  136  148 1   
   142  138  139 1   
   143  138  142 1   
   144  138  143 1   
   145  139  140 1   
   146  139  144 1   
   147  139  145 1   
   148  140  146 1   
   149  140  147 1   
   150  148  149 1   
   151  148  157 1   
   152  149  150 1   
   153  149  152 1   
   154  149  158 1   
   155  150  151 2   
   156  150  163 1   
   157  152  153 1   
   158  152  159 1   
   159  152  160 1   
   160  153  154 1   
   161  153  161 1   
   162  153  162 1   
   163  154  155 1   
   164  154  156 1   
   165  163  164 1   
   166  163  168 1   
   167  164  165 1   
   168  164  166 1   
   169  164  167 1   
   170  170  171 1   
   171  170  172 1   
   172  173  174 1   
   173  173  175 1   
   174  176  177 1   
   175  176  178 1   
   176  179  180 1   
   177  179  181 1   
@<TRIPOS>SUBSTRUCTURE
     1 MOL         1 TEMP              0 ****  ****    0 ROOT
