@<TRIPOS>MOLECULE
MOL
  181   177     1     0     0
SMALL
resp


@<TRIPOS>ATOM
      1 C1          9.1060   -1.5220    6.1660 c3        1 MOL     -0.454328
      2 C2          9.1350   -2.0630    4.7180 c         1 MOL      0.824189
      3 O1          9.5840   -3.1510    4.5210 o         1 MOL     -0.639217
      4 H1          9.9180   -0.8080    6.3020 hc        1 MOL      0.112108
      5 H2          8.1530   -1.0260    6.3500 hc        1 MOL      0.112108
      6 H3          9.2270   -2.3490    6.8650 hc        1 MOL      0.112108
      7 N1          8.8340   -1.3000    3.7360 n         1 MOL     -0.624573
      8 C3          8.3660    0.1280    3.7540 c3        1 MOL      0.042693
      9 C4          9.0510    0.9090    2.5890 c         1 MOL      0.515311
     10 O2          9.1020    2.1290    2.7730 o         1 MOL     -0.544219
     11 C5          6.8980    0.2940    3.7770 c3        1 MOL     -0.254682
     12 C6          6.2360   -0.5610    2.6430 c         1 MOL      0.840732
     13 O3          5.1120   -0.9930    2.7330 o         1 MOL     -0.732986
     14 O4          6.8300   -0.6090    1.5390 o         1 MOL     -0.732986
     15 H4          8.7960   -1.7490    2.8370 hn        1 MOL      0.282652
     16 H5          8.6920    0.6310    4.6620 h1        1 MOL      0.082060
     17 H6          6.7670    1.3570    3.6120 hc        1 MOL      0.077289
     18 H7          6.4600   -0.0710    4.7040 hc        1 MOL      0.077289
     19 N2          9.5160    0.3230    1.4570 n         1 MOL     -0.460959
     20 C7         10.1440    1.0670    0.3690 c3        1 MOL      0.187371
     21 C8          9.1310    1.8130   -0.4810 c         1 MOL      0.382422
     22 O5          9.4470    2.9000   -0.9340 o         1 MOL     -0.563853
     23 C9         10.9590    0.0960   -0.4970 c3        1 MOL     -0.287901
     24 H8          9.3050   -0.6580    1.3900 hn        1 MOL      0.300045
     25 H9         10.8080    1.8300    0.7620 h1        1 MOL      0.083489
     26 H10        10.4040   -0.6820   -1.0140 hc        1 MOL      0.079600
     27 H11        11.4170    0.6080   -1.3480 hc        1 MOL      0.079600
     28 H12        11.8770   -0.2320    0.0050 hc        1 MOL      0.079600
     29 N3          7.8470    1.4000   -0.4890 n         1 MOL      0.055802
     30 C10         6.6320    2.0230   -1.1800 c3        1 MOL     -0.237429
     31 C11         5.3540    1.9860   -0.3210 c         1 MOL      0.505509
     32 O6          4.6910    0.9360   -0.2330 o         1 MOL     -0.535829
     33 C12         6.3810    1.3240   -2.5550 c3        1 MOL      0.065485
     34 C13         6.5980   -0.2310   -2.5290 c         1 MOL      0.690753
     35 O7          6.8350   -0.7220   -3.6350 o         1 MOL     -0.719166
     36 O8          6.4420   -0.9800   -1.5410 o         1 MOL     -0.719166
     37 H13         7.6270    0.6150    0.1020 hn        1 MOL     -0.004000
     38 H14         6.9240    3.0570   -1.3550 h1        1 MOL      0.085614
     39 H15         7.1480    1.7010   -3.2320 hc        1 MOL     -0.012463
     40 H16         5.4330    1.5350   -3.0500 hc        1 MOL     -0.012463
     41 N4          5.1380    3.0120    0.4690 n         1 MOL     -0.241701
     42 C14         4.0540    3.1940    1.4950 c3        1 MOL     -0.239571
     43 C15         2.6170    3.1870    0.9020 c         1 MOL      0.596280
     44 O9          1.6640    3.0690    1.6800 o         1 MOL     -0.509005
     45 H17         5.8730    3.7030    0.3570 hn        1 MOL      0.246169
     46 H18         4.2030    4.1740    1.9510 h1        1 MOL      0.145212
     47 H19         4.1130    2.4190    2.2640 h1        1 MOL      0.145212
     48 N5          2.4770    3.3130   -0.4290 n         1 MOL     -0.571090
     49 C16         1.2720    3.3590   -1.2280 c3        1 MOL      0.459614
     50 C17         1.2090    2.4440   -2.5210 c         1 MOL      0.220508
     51 O10         0.2760    2.5960   -3.3100 o         1 MOL     -0.468053
     52 C18         0.9770    4.8310   -1.6100 c3        1 MOL     -0.232628
     53 C19         0.7490    5.7100   -0.4240 c         1 MOL      0.632482
     54 N6         -0.5020    5.8570    0.0480 n         1 MOL     -0.759424
     55 O11         1.6780    6.2590    0.1550 o         1 MOL     -0.618559
     56 H20         3.2650    3.3400   -1.0570 hn        1 MOL      0.213729
     57 H21         0.4550    2.9700   -0.6310 h1        1 MOL      0.086660
     58 H22         0.0730    4.8390   -2.2240 hc        1 MOL      0.059907
     59 H23         1.7650    5.3100   -2.1870 hc        1 MOL      0.059907
     60 H24        -1.3150    5.3510   -0.2780 hn        1 MOL      0.350581
     61 H25        -0.6720    6.4580    0.8470 hn        1 MOL      0.350581
     62 N7          2.1010    1.4070   -2.6440 n         1 MOL     -0.120357
     63 C20         2.1300    0.3620   -3.5890 c3        1 MOL     -0.100416
     64 C21         2.6770   -0.9910   -3.0220 c         1 MOL      0.629511
     65 O12         3.5520   -0.9630   -2.1920 o         1 MOL     -0.576940
     66 H26         2.8350    1.3850   -1.9500 hn        1 MOL      0.136982
     67 H27         2.7110    0.6500   -4.4570 h1        1 MOL      0.088790
     68 H28         1.1040    0.1620   -3.8910 h1        1 MOL      0.088790
     69 N8          2.0090   -2.1080   -3.3840 n         1 MOL     -0.427635
     70 C22         0.7460   -2.4120   -4.0730 c3        1 MOL     -0.221364
     71 C23        -0.5020   -2.0720   -3.2520 c         1 MOL      0.461632
     72 O13        -1.5860   -1.8510   -3.7140 o         1 MOL     -0.543210
     73 C24         0.6560   -3.9040   -4.4360 c3        1 MOL      0.395714
     74 C25         1.5940   -4.3100   -5.4790 c3        1 MOL     -0.448200
     75 O14         1.1230   -4.7500   -3.3990 oh        1 MOL     -0.695381
     76 H29         2.5070   -2.9130   -3.0430 hn        1 MOL      0.276811
     77 H30         0.6680   -1.7750   -4.9530 h1        1 MOL      0.153171
     78 H31        -0.3720   -4.1850   -4.6740 h1        1 MOL      0.070038
     79 H32         1.1570   -5.6700   -3.6590 ho        1 MOL      0.432393
     80 H33         1.6100   -5.3960   -5.5940 hc        1 MOL      0.113871
     81 H34         1.2360   -3.8470   -6.3950 hc        1 MOL      0.113871
     82 H35         2.6160   -4.0850   -5.1870 hc        1 MOL      0.113871
     83 N9         -0.3290   -1.9990   -1.9780 n         1 MOL      0.033389
     84 C26        -1.2260   -1.4780   -0.9370 c3        1 MOL      0.019293
     85 C27        -0.8780   -0.0480   -0.5720 c         1 MOL      0.575736
     86 O15         0.2350    0.2810   -0.2190 o         1 MOL     -0.597476
     87 C28        -1.1410   -2.3300    0.3020 c3        1 MOL     -0.022616
     88 C29        -1.2190   -3.8250    0.1230 c3        1 MOL     -0.424381
     89 C30        -2.2300   -2.0100    1.3420 c3        1 MOL     -0.144473
     90 C31        -2.3630   -4.1990   -0.8190 c3        1 MOL     -0.129237
     91 H36         0.6320   -2.1730   -1.7250 hn        1 MOL      0.017246
     92 H37        -2.2820   -1.4860   -1.2020 h1        1 MOL      0.046704
     93 H38        -0.1250   -2.2240    0.6970 hc        1 MOL      0.083296
     94 H39        -1.3900   -4.2940    1.0970 hc        1 MOL      0.119165
     95 H40        -0.2290   -4.1470   -0.1800 hc        1 MOL      0.119165
     96 H41        -3.2020   -2.0980    0.8500 hc        1 MOL      0.052033
     97 H42        -2.1080   -2.6230    2.2260 hc        1 MOL      0.052033
     98 H43        -2.0810   -1.0220    1.7630 hc        1 MOL      0.052033
     99 H44        -2.5460   -5.2720   -0.7840 hc        1 MOL      0.073140
    100 H45        -3.2670   -3.7320   -0.4270 hc        1 MOL      0.073140
    101 H46        -2.3140   -3.9730   -1.8790 hc        1 MOL      0.073140
    102 N10        -1.6880    1.0180   -0.6940 n         1 MOL     -0.540467
    103 C32        -2.9690    1.0890   -1.4800 c3        1 MOL      0.240477
    104 C33        -4.1500    1.0230   -0.4720 c         1 MOL      0.553774
    105 O16        -4.0020    1.0580    0.7590 o         1 MOL     -0.497268
    106 C34        -3.0740    2.4260   -2.3390 c3        1 MOL     -0.123296
    107 C35        -2.8180    3.6970   -1.5250 c         1 MOL      0.682939
    108 O17        -3.1240    4.8140   -2.0190 o         1 MOL     -0.682638
    109 O18        -2.1950    3.6440   -0.4400 o         1 MOL     -0.682638
    110 H47        -1.3700    1.9400   -0.4250 hn        1 MOL      0.333605
    111 H48        -3.1160    0.2360   -2.1460 h1        1 MOL      0.022223
    112 H49        -4.0030    2.4680   -2.9030 hc        1 MOL      0.008508
    113 H50        -2.2620    2.3210   -3.0620 hc        1 MOL      0.008508
    114 N11        -5.3540    0.9920   -1.0920 n         1 MOL     -0.617185
    115 C36        -6.6190    1.4270   -0.4750 c3        1 MOL      0.301264
    116 C37        -8.0120    0.8770   -1.0770 c         1 MOL      0.319864
    117 O19        -8.2160    0.9320   -2.2630 o         1 MOL     -0.482208
    118 C38        -6.7040    2.9500   -0.6370 c3        1 MOL     -0.036641
    119 C39        -7.5310    3.6420    0.4320 ca        1 MOL     -0.101023
    120 C40        -8.8220    4.1170    0.1390 ca        1 MOL     -0.005509
    121 C41        -6.9850    3.7040    1.7330 ca        1 MOL     -0.005509
    122 C42        -9.5960    4.7320    1.1580 ca        1 MOL     -0.182068
    123 C43        -7.7300    4.4000    2.6780 ca        1 MOL     -0.182068
    124 C44        -8.9880    4.9480    2.4160 ca        1 MOL     -0.111065
    125 H51        -5.4310    0.9430   -2.0980 hn        1 MOL      0.324588
    126 H52        -6.5970    1.2060    0.5900 h1        1 MOL      0.022469
    127 H53        -6.9260    3.2340   -1.6690 hc        1 MOL      0.040473
    128 H54        -5.7130    3.3940   -0.5640 hc        1 MOL      0.040473
    129 H55        -9.2680    4.1210   -0.8320 ha        1 MOL      0.093456
    130 H56        -6.0410    3.2180    1.9580 ha        1 MOL      0.093456
    131 H57       -10.5510    5.2260    1.0430 ha        1 MOL      0.110103
    132 H58        -7.3280    4.6340    3.6570 ha        1 MOL      0.110103
    133 H59        -9.4880    5.4250    3.2400 ha        1 MOL      0.100930
    134 N12        -9.0200    0.3760   -0.2650 n         1 MOL     -0.049839
    135 C45        -9.0400    0.5250    1.1940 c3        1 MOL     -0.099974
    136 C46        -8.2670   -0.5320    2.0030 c         1 MOL      0.436206
    137 O20        -7.9130   -0.1560    3.1240 o         1 MOL     -0.536722
    138 C47       -10.5190    0.3440    1.5650 c3        1 MOL     -0.072121
    139 C48       -11.1170   -0.5730    0.4810 c3        1 MOL      0.002334
    140 C49       -10.2650   -0.1930   -0.8170 c3        1 MOL     -0.346057
    141 H60        -8.7100    1.5210    1.4830 h1        1 MOL      0.127603
    142 H61       -10.6290   -0.2220    2.4920 hc        1 MOL      0.038696
    143 H62       -10.9520    1.3450    1.5570 hc        1 MOL      0.038696
    144 H63       -10.9240   -1.5750    0.8510 hc        1 MOL      0.037123
    145 H64       -12.1740   -0.4470    0.2580 hc        1 MOL      0.037123
    146 H65       -10.1310   -0.9980   -1.5380 h1        1 MOL      0.147501
    147 H66       -10.8470    0.6060   -1.2690 h1        1 MOL      0.147501
    148 N13        -8.0510   -1.7370    1.4970 n         1 MOL     -0.300215
    149 C50        -7.3380   -2.9100    2.1170 c3        1 MOL      0.130433
    150 C51        -8.1800   -3.5210    3.2260 c         1 MOL      0.439474
    151 O21        -9.0020   -4.4200    2.9130 o         1 MOL     -0.577826
    152 C52        -7.0330   -3.9200    0.9790 c3        1 MOL      0.057049
    153 C53        -5.9180   -3.5000    0.0370 c3        1 MOL     -0.142721
    154 C54        -5.7940   -4.4650   -1.1500 c         1 MOL      0.696940
    155 O22        -6.0540   -5.6600   -1.0310 o         1 MOL     -0.724302
    156 O23        -5.4170   -3.9970   -2.3030 o         1 MOL     -0.724302
    157 H67        -8.5330   -1.9450    0.6390 hn        1 MOL      0.264698
    158 H68        -6.3710   -2.5180    2.4670 h1        1 MOL      0.047696
    159 H69        -7.9290   -4.1490    0.3910 hc        1 MOL      0.006023
    160 H70        -6.8700   -4.8790    1.4730 hc        1 MOL      0.006023
    161 H71        -5.0100   -3.5140    0.6350 hc        1 MOL     -0.014999
    162 H72        -6.0340   -2.4660   -0.3050 hc        1 MOL     -0.014999
    163 N14        -8.1250   -3.1540    4.5160 n         1 MOL     -0.299984
    164 C55        -7.2170   -2.2970    5.2500 c3        1 MOL     -0.129709
    165 H73        -6.4060   -2.8980    5.6620 h1        1 MOL      0.073578
    166 H74        -6.8050   -1.5440    4.5790 h1        1 MOL      0.073578
    167 H75        -7.7540   -1.8070    6.0630 h1        1 MOL      0.073578
    168 H76        -8.7670   -3.6720    5.1120 hn        1 MOL      0.244788
    169 Ca1         4.7380   -1.6240    0.1200 Ca        1 MOL      1.680658
    170 O24         2.5120   -0.8460    1.0590 oh        1 MOL     -0.752806
    171 H77         1.8360   -1.1820    1.6560 ho        1 MOL      0.375297
    172 H78         2.0500   -0.2040    0.5110 ho        1 MOL      0.375297
    173 O25         5.8930   -3.9650   -0.8550 oh        1 MOL     -0.752806
    174 H79         6.0860   -4.8010   -0.4470 ho        1 MOL      0.375297
    175 H80         5.5630   -4.1880   -1.7280 ho        1 MOL      0.375297
    176 O26         2.8060   -3.6150   -0.6140 oh        1 MOL     -0.752806
    177 H81         2.5930   -4.3920   -0.0950 ho        1 MOL      0.375297
    178 H82         2.9410   -3.9610   -1.4980 ho        1 MOL      0.375297
    179 O27         4.6100   -4.0460    1.8150 oh        1 MOL     -0.752806
    180 H83         5.3810   -4.2530    2.3420 ho        1 MOL      0.375297
    181 H84         4.2620   -4.9000    1.5350 ho        1 MOL      0.375297
@<TRIPOS>BOND
     1    1    2 1   
     2    1    4 1   
     3    1    5 1   
     4    1    6 1   
     5    2    3 2   
     6    2    7 1   
     7    7    8 1   
     8    7   15 1   
     9    8    9 1   
    10    8   11 1   
    11    8   16 1   
    12    9   10 2   
    13    9   19 1   
    14   11   12 1   
    15   11   17 1   
    16   11   18 1   
    17   12   13 1   
    18   12   14 1   
    19   19   20 1   
    20   19   24 1   
    21   20   21 1   
    22   20   23 1   
    23   20   25 1   
    24   21   22 2   
    25   21   29 1   
    26   23   26 1   
    27   23   27 1   
    28   23   28 1   
    29   29   30 1   
    30   29   37 1   
    31   30   31 1   
    32   30   33 1   
    33   30   38 1   
    34   31   32 2   
    35   31   41 1   
    36   33   34 1   
    37   33   39 1   
    38   33   40 1   
    39   34   35 1   
    40   34   36 1   
    41   41   42 1   
    42   41   45 1   
    43   42   43 1   
    44   42   46 1   
    45   42   47 1   
    46   43   44 2   
    47   43   48 1   
    48   48   49 1   
    49   48   56 1   
    50   49   50 1   
    51   49   52 1   
    52   49   57 1   
    53   50   51 2   
    54   50   62 1   
    55   52   53 1   
    56   52   58 1   
    57   52   59 1   
    58   53   54 1   
    59   53   55 2   
    60   54   60 1   
    61   54   61 1   
    62   62   63 1   
    63   62   66 1   
    64   63   64 1   
    65   63   67 1   
    66   63   68 1   
    67   64   65 2   
    68   64   69 1   
    69   69   70 1   
    70   69   76 1   
    71   70   71 1   
    72   70   73 1   
    73   70   77 1   
    74   71   72 2   
    75   71   83 1   
    76   73   74 1   
    77   73   75 1   
    78   73   78 1   
    79   74   80 1   
    80   74   81 1   
    81   74   82 1   
    82   75   79 1   
    83   83   84 1   
    84   83   91 1   
    85   84   85 1   
    86   84   87 1   
    87   84   92 1   
    88   85   86 2   
    89   85  102 1   
    90   87   88 1   
    91   87   89 1   
    92   87   93 1   
    93   88   90 1   
    94   88   94 1   
    95   88   95 1   
    96   89   96 1   
    97   89   97 1   
    98   89   98 1   
    99   90   99 1   
   100   90  100 1   
   101   90  101 1   
   102  102  103 1   
   103  102  110 1   
   104  103  104 1   
   105  103  106 1   
   106  103  111 1   
   107  104  105 2   
   108  104  114 1   
   109  106  107 1   
   110  106  112 1   
   111  106  113 1   
   112  107  108 1   
   113  107  109 1   
   114  114  115 1   
   115  114  125 1   
   116  115  116 1   
   117  115  118 1   
   118  115  126 1   
   119  116  117 2   
   120  116  134 1   
   121  118  119 1   
   122  118  127 1   
   123  118  128 1   
   124  119  120 ar  
   125  119  121 ar  
   126  120  122 ar  
   127  120  129 1   
   128  121  123 ar  
   129  121  130 1   
   130  122  124 ar  
   131  122  131 1   
   132  123  124 ar  
   133  123  132 1   
   134  124  133 1   
   135  134  135 1   
   136  134  140 1   
   137  135  136 1   
   138  135  138 1   
   139  135  141 1   
   140  136  137 2   
   141  136  148 1   
   142  138  139 1   
   143  138  142 1   
   144  138  143 1   
   145  139  140 1   
   146  139  144 1   
   147  139  145 1   
   148  140  146 1   
   149  140  147 1   
   150  148  149 1   
   151  148  157 1   
   152  149  150 1   
   153  149  152 1   
   154  149  158 1   
   155  150  151 2   
   156  150  163 1   
   157  152  153 1   
   158  152  159 1   
   159  152  160 1   
   160  153  154 1   
   161  153  161 1   
   162  153  162 1   
   163  154  155 1   
   164  154  156 1   
   165  163  164 1   
   166  163  168 1   
   167  164  165 1   
   168  164  166 1   
   169  164  167 1   
   170  170  171 1   
   171  170  172 1   
   172  173  174 1   
   173  173  175 1   
   174  176  177 1   
   175  176  178 1   
   176  179  180 1   
   177  179  181 1   
@<TRIPOS>SUBSTRUCTURE
     1 MOL         1 TEMP              0 ****  ****    0 ROOT
