@<TRIPOS>MOLECULE
MOL
  192   187     1     0     0
SMALL
resp


@<TRIPOS>ATOM
      1 C1         -9.3880    0.0130   -2.3160 c3        1 MOL     -0.639887
      2 C2         -8.1980   -0.3840   -1.3570 c         1 MOL      0.788664
      3 O1         -7.0970   -0.6120   -1.8080 o         1 MOL     -0.641288
      4 H1        -10.1030    0.6290   -1.7710 hc        1 MOL      0.166131
      5 H2         -9.0000    0.5740   -3.1650 hc        1 MOL      0.166131
      6 H3         -9.8850   -0.8890   -2.6720 hc        1 MOL      0.166131
      7 N1         -8.4950   -0.4720    0.0150 n         1 MOL     -0.626439
      8 C3         -7.6070   -0.4160    1.1610 c3        1 MOL      0.132866
      9 C4         -6.8230   -1.7630    1.5420 c         1 MOL      0.362135
     10 O2         -6.4390   -1.9440    2.6880 o         1 MOL     -0.447456
     11 C5         -8.2460    0.3210    2.4250 c3        1 MOL     -0.177616
     12 C6         -9.7780    0.1800    2.5840 c         1 MOL      0.686767
     13 O3        -10.4830    1.2210    2.7100 o         1 MOL     -0.652747
     14 O4        -10.2970   -0.9350    2.3350 o         1 MOL     -0.652747
     15 H4         -9.4780   -0.3640    0.2020 hn        1 MOL      0.316451
     16 H5         -6.8910    0.3260    0.8270 h1        1 MOL      0.116581
     17 H6         -8.0680    1.3780    2.1810 hc        1 MOL      0.053627
     18 H7         -7.6630    0.1600    3.3280 hc        1 MOL      0.053627
     19 N2         -6.6570   -2.6120    0.5160 n         1 MOL     -0.302012
     20 C7         -5.9070   -3.9370    0.5270 c3        1 MOL      0.055579
     21 C8         -4.4350   -3.8440    0.9260 c         1 MOL      0.591461
     22 O5         -3.9730   -4.8230    1.4520 o         1 MOL     -0.560172
     23 C9         -6.0570   -4.6050   -0.8330 c3        1 MOL     -0.182406
     24 C10        -7.5850   -4.6660   -1.2610 c3        1 MOL      0.113321
     25 C11        -7.6950   -5.0940   -2.6900 c3        1 MOL     -0.107769
     26 C12        -9.1650   -5.1940   -3.2540 c3        1 MOL      0.199567
     27 N3         -9.1500   -5.5090   -4.6770 n4        1 MOL     -0.324104
     28 H8         -7.1430   -2.3190   -0.3150 hn        1 MOL      0.252420
     29 H9         -6.3590   -4.6030    1.2630 h1        1 MOL      0.072098
     30 H10        -5.6510   -5.6110   -0.8790 hc        1 MOL      0.073557
     31 H11        -5.4770   -3.9640   -1.4970 hc        1 MOL      0.073557
     32 H12        -8.0870   -3.7080   -1.0950 hc        1 MOL     -0.008377
     33 H13        -8.1740   -5.3600   -0.6740 hc        1 MOL     -0.008377
     34 H14        -7.2910   -6.1000   -2.8000 hc        1 MOL      0.031008
     35 H15        -7.0750   -4.3760   -3.2080 hc        1 MOL      0.031008
     36 H16        -9.6760   -4.2470   -3.1070 hx        1 MOL      0.032551
     37 H17        -9.7700   -5.9350   -2.7230 hx        1 MOL      0.032551
     38 H18        -8.4160   -6.1470   -4.9300 hn        1 MOL      0.272684
     39 H19        -9.9980   -5.9780   -4.9540 hn        1 MOL      0.272684
     40 H20        -9.0590   -4.6700   -5.2370 hn        1 MOL      0.272684
     41 N4         -3.7700   -2.7250    0.6840 n         1 MOL     -0.424152
     42 C13        -3.7990   -1.7270   -0.3870 c3        1 MOL      0.053035
     43 C14        -3.8470   -0.2850    0.1010 c         1 MOL     -0.067095
     44 O6         -3.7710   -0.0070    1.3330 o         1 MOL     -0.274831
     45 C15        -2.5740   -1.9200   -1.3070 c3        1 MOL     -0.259749
     46 C16        -1.1770   -2.0360   -0.6440 c         1 MOL      0.786723
     47 O7         -0.9040   -1.1770    0.2330 o         1 MOL     -0.674357
     48 O8         -0.3360   -2.9340   -1.0140 o         1 MOL     -0.674357
     49 H21        -2.9330   -2.6890    1.2430 hn        1 MOL      0.342183
     50 H22        -4.6860   -1.9340   -0.9830 h1        1 MOL      0.120367
     51 H23        -2.4640   -1.1430   -2.0780 hc        1 MOL      0.046634
     52 H24        -2.7250   -2.8590   -1.8300 hc        1 MOL      0.046634
     53 N5         -4.1310    0.6140   -0.8580 n         1 MOL      0.005241
     54 C17        -4.1150    2.0630   -0.5340 c3        1 MOL     -0.463846
     55 C18        -2.8890    2.6810    0.2640 c         1 MOL      0.754902
     56 O9         -1.8080    2.1080    0.2310 o         1 MOL     -0.585437
     57 H25        -4.1940    0.2950   -1.8090 hn        1 MOL      0.239990
     58 H26        -5.0130    2.2350    0.0530 h1        1 MOL      0.137658
     59 H27        -4.0470    2.4870   -1.5390 h1        1 MOL      0.137658
     60 N6         -3.1950    3.9370    0.7790 n         1 MOL     -0.430821
     61 C19        -2.2780    4.8290    1.5000 c3        1 MOL      0.254988
     62 C20        -2.6960    6.2980    1.3940 c         1 MOL      0.400004
     63 O10        -3.8680    6.6030    1.1770 o         1 MOL     -0.505088
     64 C21        -2.0950    4.5340    3.0710 c3        1 MOL     -0.410645
     65 C22        -1.6740    3.0970    3.3650 c         1 MOL      0.633277
     66 O11        -0.6150    2.6660    2.8270 o         1 MOL     -0.632603
     67 O12        -2.3440    2.3360    4.1130 o         1 MOL     -0.632603
     68 H28        -4.1730    4.1600    0.7160 hn        1 MOL      0.276782
     69 H29        -1.3000    4.7370    1.0230 h1        1 MOL      0.026610
     70 H30        -3.0590    4.7100    3.5700 hc        1 MOL      0.124061
     71 H31        -1.3530    5.2300    3.4490 hc        1 MOL      0.124061
     72 N7         -1.7600    7.2490    1.5530 n         1 MOL     -0.392897
     73 C23        -0.2950    7.1860    1.5710 c3        1 MOL     -0.097911
     74 C24         0.3250    6.5210    0.3300 c         1 MOL      0.517064
     75 O13        -0.2410    6.5790   -0.7850 o         1 MOL     -0.462097
     76 H32        -2.1640    8.1770    1.5770 hn        1 MOL      0.306887
     77 H33         0.0940    6.7790    2.5050 h1        1 MOL      0.085310
     78 H34        -0.0100    8.2340    1.6470 h1        1 MOL      0.085310
     79 N8          1.4250    5.8710    0.5690 n         1 MOL     -0.477175
     80 C25         2.2730    5.0500   -0.3380 c3        1 MOL     -0.074687
     81 C26         1.5620    3.7680   -0.9010 c         1 MOL      0.862001
     82 O14         0.7970    3.1890   -0.1730 o         1 MOL     -0.773669
     83 C27         3.4920    4.5580    0.4800 c3        1 MOL      0.426264
     84 C28         4.5540    5.6000    0.7630 c3        1 MOL     -0.302078
     85 O15         4.1370    3.4890   -0.1730 oh        1 MOL     -0.680782
     86 H35         1.8850    6.1180    1.4420 hn        1 MOL      0.278219
     87 H36         2.7000    5.6590   -1.1370 h1        1 MOL      0.081490
     88 H37         3.1660    4.1460    1.4340 h1        1 MOL     -0.010704
     89 H38         4.7660    3.0640    0.4250 ho        1 MOL      0.417916
     90 H39         5.0100    5.9590   -0.1640 hc        1 MOL      0.082185
     91 H40         4.0660    6.4490    1.2430 hc        1 MOL      0.082185
     92 H41         5.3740    5.2430    1.3970 hc        1 MOL      0.082185
     93 N9          1.7810    3.4970   -2.2200 n         1 MOL     -0.548188
     94 C29         1.1080    2.3680   -2.9380 c3        1 MOL     -0.264348
     95 C30         1.5150    0.9400   -2.4150 c         1 MOL      0.629649
     96 O16         1.3560    0.5970   -1.2690 o         1 MOL     -0.607418
     97 C31        -0.4100    2.6330   -3.0920 c3        1 MOL      0.266920
     98 C32        -0.7060    4.0990   -3.5760 c3        1 MOL      0.113421
     99 C33        -1.1410    1.5440   -3.8610 c3        1 MOL     -0.671504
    100 C34        -2.1960    4.4370   -3.4400 c3        1 MOL     -0.092998
    101 H42         2.3970    4.0830   -2.7730 hn        1 MOL      0.312612
    102 H43         1.4960    2.4800   -3.9460 h1        1 MOL      0.115632
    103 H44        -0.8120    2.6320   -2.0750 hc        1 MOL      0.118246
    104 H45        -0.5000    4.0110   -4.6390 hc        1 MOL     -0.039544
    105 H46        -0.1370    4.8930   -3.0890 hc        1 MOL     -0.039544
    106 H47        -1.0330    0.6330   -3.2700 hc        1 MOL      0.169498
    107 H48        -2.2020    1.7860   -3.8210 hc        1 MOL      0.169498
    108 H49        -0.7620    1.4570   -4.8780 hc        1 MOL      0.169498
    109 H50        -2.3500    5.5030   -3.6140 hc        1 MOL      0.017651
    110 H51        -2.8180    3.8550   -4.1300 hc        1 MOL      0.017651
    111 H52        -2.5870    4.2300   -2.4370 hc        1 MOL      0.017651
    112 N10         2.1690    0.1630   -3.3200 n         1 MOL     -0.324270
    113 C35         2.6430   -1.1790   -2.9970 c3        1 MOL      0.227045
    114 C36         4.1750   -1.3750   -3.0920 c         1 MOL      0.367642
    115 O17         4.6480   -2.4710   -3.3790 o         1 MOL     -0.508549
    116 C37         1.9330   -2.2780   -3.9080 c3        1 MOL      0.391046
    117 C38         2.1710   -1.9890   -5.4380 c3        1 MOL     -0.235066
    118 O18         0.5260   -2.1830   -3.8940 oh        1 MOL     -0.581633
    119 H53         2.4030    0.4230   -4.2710 hn        1 MOL      0.204470
    120 H54         2.3460   -1.4090   -1.9740 h1        1 MOL     -0.027469
    121 H55         2.3670   -3.2460   -3.6800 h1        1 MOL     -0.006504
    122 H56         0.2840   -2.4060   -2.9850 ho        1 MOL      0.326694
    123 H57         1.7670   -2.7800   -6.0720 hc        1 MOL      0.047800
    124 H58         1.6690   -1.0250   -5.5530 hc        1 MOL      0.047800
    125 H59         3.2410   -1.8790   -5.6180 hc        1 MOL      0.047800
    126 N11         4.9890   -0.3050   -2.9340 n         1 MOL     -0.485733
    127 C39         6.4790   -0.3870   -2.9270 c3        1 MOL      0.230374
    128 C40         6.9680   -0.8190   -1.5340 c         1 MOL      0.375704
    129 O19         7.4300   -0.0710   -0.7410 o         1 MOL     -0.490176
    130 C41         7.1650    0.8970   -3.4710 c3        1 MOL      0.371801
    131 C42         8.6430    0.7740   -3.3490 c3        1 MOL     -0.227075
    132 O20         6.8500    1.0330   -4.8300 oh        1 MOL     -0.608596
    133 H60         4.4850    0.5640   -2.8670 hn        1 MOL      0.236268
    134 H61         6.7390   -1.1430   -3.6800 h1        1 MOL      0.072105
    135 H62         6.7950    1.7220   -2.8690 h1        1 MOL     -0.031876
    136 H63         6.2540    1.7940   -4.8110 ho        1 MOL      0.370338
    137 H64         9.0180   -0.2170   -3.6070 hc        1 MOL      0.054345
    138 H65         9.1200    1.5780   -3.9080 hc        1 MOL      0.054345
    139 H66         8.9720    0.9570   -2.3250 hc        1 MOL      0.054345
    140 N12         6.7950   -2.1290   -1.2900 n         1 MOL     -0.688613
    141 C43         6.4700   -2.6190    0.0860 c3        1 MOL      0.687051
    142 C44         5.0820   -2.1950    0.6610 c         1 MOL      0.277354
    143 O21         4.4840   -1.2380    0.2160 o         1 MOL     -0.413737
    144 C45         7.5680   -2.4450    1.0950 c3        1 MOL     -0.904919
    145 C46         9.0410   -2.2930    0.5870 c3        1 MOL      0.584487
    146 C47         9.9810   -2.5490    1.7810 c3        1 MOL     -0.174411
    147 C48        11.4400   -2.7430    1.3760 c3        1 MOL      0.035786
    148 N13        12.0130   -1.5050    0.8090 n4        1 MOL     -0.277943
    149 H67         6.4300   -2.6510   -2.0700 hn        1 MOL      0.321189
    150 H68         6.3640   -3.6950   -0.0460 h1        1 MOL     -0.035615
    151 H69         7.4990   -3.2360    1.8540 hc        1 MOL      0.196642
    152 H70         7.3960   -1.4690    1.5460 hc        1 MOL      0.196642
    153 H71         9.2690   -1.3090    0.1850 hc        1 MOL     -0.086233
    154 H72         9.2970   -2.9920   -0.2120 hc        1 MOL     -0.086233
    155 H73         9.7210   -3.4430    2.3530 hc        1 MOL      0.075469
    156 H74         9.9580   -1.6770    2.4260 hc        1 MOL      0.075469
    157 H75        11.5130   -3.4950    0.5890 hx        1 MOL      0.065504
    158 H76        12.0540   -3.1050    2.2070 hx        1 MOL      0.065504
    159 H77        12.9820   -1.6490    0.5770 hn        1 MOL      0.244578
    160 H78        11.5340   -1.3900   -0.0700 hn        1 MOL      0.244578
    161 H79        11.9770   -0.7960    1.5320 hn        1 MOL      0.244578
    162 N14         4.6030   -2.9440    1.6700 n         1 MOL     -0.362624
    163 C49         3.4760   -2.5010    2.4850 c3        1 MOL      0.105132
    164 C50         2.2020   -2.4060    1.6550 c         1 MOL      0.356727
    165 O22         1.3670   -1.6420    2.0480 o         1 MOL     -0.542295
    166 C51         3.2950   -3.1790    3.7960 c3        1 MOL      0.048141
    167 C52         4.6480   -3.2080    4.5880 c3        1 MOL     -0.226797
    168 C53         4.5820   -4.2050    5.7570 c         1 MOL      0.686570
    169 O23         4.3320   -3.6970    6.8690 o         1 MOL     -0.657783
    170 O24         4.7700   -5.4540    5.5900 o         1 MOL     -0.657783
    171 H80         5.1430   -3.7880    1.8140 hn        1 MOL      0.275754
    172 H81         3.6160   -1.4830    2.8360 h1        1 MOL      0.038340
    173 H82         2.8970   -4.1670    3.5700 hc        1 MOL      0.048454
    174 H83         2.5530   -2.6680    4.4080 hc        1 MOL      0.048454
    175 H84         5.0160   -2.2290    4.8940 hc        1 MOL      0.024191
    176 H85         5.4290   -3.6570    3.9740 hc        1 MOL      0.024191
    177 N15         1.9210   -3.1090    0.5570 n         1 MOL     -0.018895
    178 C54         2.3830   -4.4360    0.2600 c3        1 MOL     -0.115065
    179 H86         3.4230   -4.3940   -0.0640 h1        1 MOL      0.035413
    180 H87         2.3060   -5.0570    1.1520 h1        1 MOL      0.035413
    181 H88         1.7730   -4.8650   -0.5350 h1        1 MOL      0.035413
    182 H89         1.1780   -2.7760   -0.0280 hn        1 MOL      0.140270
    183 Ca1         0.3660    0.8970    1.1970 Ca        1 MOL      1.819242
    184 O25         2.9240    1.0720    0.8910 oh        1 MOL     -0.851787
    185 H90         3.2630    1.9330    0.6350 ho        1 MOL      0.399287
    186 H91         3.5610    0.4550    0.5390 ho        1 MOL      0.399287
    187 O26        -0.8680    0.0810    3.4910 oh        1 MOL     -0.851787
    188 H92        -0.3540    0.0480    4.2910 ho        1 MOL      0.399287
    189 H93        -1.4040    0.8670    3.5790 ho        1 MOL      0.399287
    190 O27         1.7250    1.3760    3.5300 oh        1 MOL     -0.851787
    191 H94         1.2450    1.2260    4.3480 ho        1 MOL      0.399287
    192 H95         2.6370    1.4790    3.7990 ho        1 MOL      0.399287
@<TRIPOS>BOND
     1    1    2 1   
     2    1    4 1   
     3    1    5 1   
     4    1    6 1   
     5    2    3 2   
     6    2    7 1   
     7    7    8 1   
     8    7   15 1   
     9    8    9 1   
    10    8   11 1   
    11    8   16 1   
    12    9   10 2   
    13    9   19 1   
    14   11   12 1   
    15   11   17 1   
    16   11   18 1   
    17   12   13 1   
    18   12   14 1   
    19   19   20 1   
    20   19   28 1   
    21   20   21 1   
    22   20   23 1   
    23   20   29 1   
    24   21   22 2   
    25   21   41 1   
    26   23   24 1   
    27   23   30 1   
    28   23   31 1   
    29   24   25 1   
    30   24   32 1   
    31   24   33 1   
    32   25   26 1   
    33   25   34 1   
    34   25   35 1   
    35   26   27 1   
    36   26   36 1   
    37   26   37 1   
    38   27   38 1   
    39   27   39 1   
    40   27   40 1   
    41   41   42 1   
    42   41   49 1   
    43   42   43 1   
    44   42   45 1   
    45   42   50 1   
    46   43   44 2   
    47   43   53 1   
    48   45   46 1   
    49   45   51 1   
    50   45   52 1   
    51   46   47 1   
    52   46   48 1   
    53   53   54 1   
    54   53   57 1   
    55   54   55 1   
    56   54   58 1   
    57   54   59 1   
    58   55   56 2   
    59   55   60 1   
    60   60   61 1   
    61   60   68 1   
    62   61   62 1   
    63   61   64 1   
    64   61   69 1   
    65   62   63 2   
    66   62   72 1   
    67   64   65 1   
    68   64   70 1   
    69   64   71 1   
    70   65   66 1   
    71   65   67 1   
    72   72   73 1   
    73   72   76 1   
    74   73   74 1   
    75   73   77 1   
    76   73   78 1   
    77   74   75 2   
    78   74   79 1   
    79   79   80 1   
    80   79   86 1   
    81   80   81 1   
    82   80   83 1   
    83   80   87 1   
    84   81   82 2   
    85   81   93 1   
    86   83   84 1   
    87   83   85 1   
    88   83   88 1   
    89   84   90 1   
    90   84   91 1   
    91   84   92 1   
    92   85   89 1   
    93   93   94 1   
    94   93  101 1   
    95   94   95 1   
    96   94   97 1   
    97   94  102 1   
    98   95   96 2   
    99   95  112 1   
   100   97   98 1   
   101   97   99 1   
   102   97  103 1   
   103   98  100 1   
   104   98  104 1   
   105   98  105 1   
   106   99  106 1   
   107   99  107 1   
   108   99  108 1   
   109  100  109 1   
   110  100  110 1   
   111  100  111 1   
   112  112  113 1   
   113  112  119 1   
   114  113  114 1   
   115  113  116 1   
   116  113  120 1   
   117  114  115 2   
   118  114  126 1   
   119  116  117 1   
   120  116  118 1   
   121  116  121 1   
   122  117  123 1   
   123  117  124 1   
   124  117  125 1   
   125  118  122 1   
   126  126  127 1   
   127  126  133 1   
   128  127  128 1   
   129  127  130 1   
   130  127  134 1   
   131  128  129 2   
   132  128  140 1   
   133  130  131 1   
   134  130  132 1   
   135  130  135 1   
   136  131  137 1   
   137  131  138 1   
   138  131  139 1   
   139  132  136 1   
   140  140  141 1   
   141  140  149 1   
   142  141  142 1   
   143  141  144 1   
   144  141  150 1   
   145  142  143 2   
   146  142  162 1   
   147  144  145 1   
   148  144  151 1   
   149  144  152 1   
   150  145  146 1   
   151  145  153 1   
   152  145  154 1   
   153  146  147 1   
   154  146  155 1   
   155  146  156 1   
   156  147  148 1   
   157  147  157 1   
   158  147  158 1   
   159  148  159 1   
   160  148  160 1   
   161  148  161 1   
   162  162  163 1   
   163  162  171 1   
   164  163  164 1   
   165  163  166 1   
   166  163  172 1   
   167  164  165 2   
   168  164  177 1   
   169  166  167 1   
   170  166  173 1   
   171  166  174 1   
   172  167  168 1   
   173  167  175 1   
   174  167  176 1   
   175  168  169 1   
   176  168  170 1   
   177  177  178 1   
   178  177  182 1   
   179  178  179 1   
   180  178  180 1   
   181  178  181 1   
   182  184  185 1   
   183  184  186 1   
   184  187  188 1   
   185  187  189 1   
   186  190  191 1   
   187  190  192 1   
@<TRIPOS>SUBSTRUCTURE
     1 MOL         1 TEMP              0 ****  ****    0 ROOT
