@<TRIPOS>MOLECULE
MOL
  195   189     1     0     0
SMALL
resp


@<TRIPOS>ATOM
      1 C1          3.7300   -7.3690    0.1280 c3        1 MOL     -0.284162
      2 C2          3.6770   -5.8070    0.2300 c         1 MOL      0.567735
      3 O1          3.2700   -5.2590    1.2980 o         1 MOL     -0.591907
      4 H1          4.6550   -7.7310    0.5760 hc        1 MOL      0.088460
      5 H2          2.8780   -7.7970    0.6580 hc        1 MOL      0.088460
      6 H3          3.6940   -7.6670   -0.9200 hc        1 MOL      0.088460
      7 N1          4.1930   -5.0740   -0.7280 n         1 MOL     -0.268366
      8 C3          4.2120   -3.6000   -0.7620 c3        1 MOL     -0.158396
      9 C4          2.7970   -2.8720   -0.7500 c         1 MOL      0.462224
     10 O2          2.6910   -1.6980   -0.4240 o         1 MOL     -0.531563
     11 C5          4.9250   -3.1030   -2.0440 c3        1 MOL     -0.118605
     12 C6          4.4820   -3.7960   -3.3490 c         1 MOL      0.676099
     13 O3          4.8560   -4.9500   -3.5470 o         1 MOL     -0.687558
     14 O4          3.8490   -3.1920   -4.2250 o         1 MOL     -0.687558
     15 H4          4.6400   -5.5540   -1.4970 hn        1 MOL      0.212283
     16 H5          4.8550   -3.2600    0.0450 h1        1 MOL      0.136740
     17 H6          6.0090   -3.1990   -1.9410 hc        1 MOL      0.050284
     18 H7          4.9030   -2.0100   -2.1160 hc        1 MOL      0.050284
     19 N2          1.6660   -3.6810   -0.9750 n         1 MOL     -0.258173
     20 C7          0.2650   -3.2670   -1.1270 c3        1 MOL      0.254442
     21 C8         -0.5960   -3.4640    0.0570 c         1 MOL      0.296539
     22 O5         -0.5320   -4.6140    0.5950 o         1 MOL     -0.586725
     23 C9         -0.3340   -3.9060   -2.4150 c3        1 MOL      0.000133
     24 C10         0.2930   -3.2320   -3.6790 c3        1 MOL      0.038618
     25 C11         0.1760   -4.1230   -4.8680 c3        1 MOL     -0.179344
     26 C12         1.0880   -5.3830   -4.7940 c3        1 MOL      0.030595
     27 N3          2.3590   -5.2540   -5.4700 n4        1 MOL     -0.331443
     28 H8          1.8930   -4.6230   -1.2320 hn        1 MOL      0.155763
     29 H9          0.2310   -2.1890   -1.2770 h1        1 MOL      0.002714
     30 H10        -1.4260   -3.8590   -2.3920 hc        1 MOL      0.021232
     31 H11        -0.0190   -4.9380   -2.4550 hc        1 MOL      0.021232
     32 H12         1.3020   -2.8340   -3.5210 hc        1 MOL      0.021864
     33 H13        -0.3570   -2.4010   -3.9480 hc        1 MOL      0.021864
     34 H14         0.4600   -3.5930   -5.7750 hc        1 MOL      0.083144
     35 H15        -0.8620   -4.4450   -4.8470 hc        1 MOL      0.083144
     36 H16         0.5210   -6.2280   -5.1890 hx        1 MOL      0.067996
     37 H17         1.2390   -5.7580   -3.7780 hx        1 MOL      0.067996
     38 H18         2.3980   -5.3500   -6.4700 hn        1 MOL      0.302681
     39 H19         2.7860   -4.3600   -5.3000 hn        1 MOL      0.302681
     40 H20         3.0230   -5.9750   -5.2130 hn        1 MOL      0.302681
     41 N4         -1.5610   -2.6150    0.4610 n         1 MOL     -0.186011
     42 C13        -1.8630   -1.2130    0.0220 c3        1 MOL     -0.035432
     43 C14        -2.3020   -1.1100   -1.4400 c         1 MOL      0.479968
     44 O6         -1.6680   -0.5620   -2.3180 o         1 MOL     -0.543364
     45 C15        -0.7950   -0.1440    0.4080 c3        1 MOL     -0.198553
     46 C16        -0.4350   -0.1680    1.9070 c         1 MOL      0.775295
     47 O7         -0.6880    0.8320    2.6040 o         1 MOL     -0.794818
     48 O8         -0.0180   -1.2060    2.4120 o         1 MOL     -0.794818
     49 H21        -2.0930   -2.9410    1.2590 hn        1 MOL      0.266161
     50 H22        -2.7250   -1.0210    0.6630 h1        1 MOL      0.083192
     51 H23        -1.1620    0.8700    0.2140 hc        1 MOL      0.079565
     52 H24         0.1050   -0.4060   -0.1430 hc        1 MOL      0.079565
     53 N5         -3.4290   -1.6970   -1.7580 n         1 MOL     -0.391070
     54 C17        -4.4750   -2.2650   -0.9010 c3        1 MOL      0.001853
     55 C18        -5.5290   -2.8880   -1.8290 c         1 MOL      0.555485
     56 O9         -5.4230   -3.0400   -3.0700 o         1 MOL     -0.550227
     57 H25        -3.7090   -1.5870   -2.7170 hn        1 MOL      0.305034
     58 H26        -5.0580   -1.5170   -0.3520 h1        1 MOL      0.039794
     59 H27        -4.1510   -2.9820   -0.1550 h1        1 MOL      0.039794
     60 N6         -6.7130   -3.2770   -1.3140 n         1 MOL     -0.534182
     61 C19        -7.1940   -3.1290    0.0260 c3        1 MOL      0.283254
     62 C20        -7.8460   -1.7660    0.4350 c         1 MOL      0.423240
     63 O10        -8.5520   -1.1820   -0.3990 o         1 MOL     -0.464803
     64 C21        -8.1710   -4.2620    0.4160 c3        1 MOL     -0.104961
     65 C22        -9.3620   -4.7310   -0.5140 c         1 MOL      0.683245
     66 O11        -9.3120   -4.3780   -1.6800 o         1 MOL     -0.620178
     67 O12       -10.4150   -5.1750   -0.0010 o         1 MOL     -0.620178
     68 H28        -7.3610   -3.5380   -2.0420 hn        1 MOL      0.329245
     69 H29        -6.3350   -3.1980    0.7030 h1        1 MOL     -0.076377
     70 H30        -8.4760   -4.1500    1.4520 hc        1 MOL     -0.019743
     71 H31        -7.6410   -5.2080    0.3290 hc        1 MOL     -0.019743
     72 N7         -7.8000   -1.4110    1.7390 n         1 MOL     -0.256077
     73 C23        -8.2590   -0.1420    2.3640 c3        1 MOL     -0.281828
     74 C24        -7.2610    1.0020    2.0390 c         1 MOL      0.585567
     75 O13        -7.6400    2.1680    2.2300 o         1 MOL     -0.551349
     76 H32        -7.3660   -2.0700    2.3660 hn        1 MOL      0.231918
     77 H33        -8.3770   -0.1820    3.4460 h1        1 MOL      0.156395
     78 H34        -9.3010    0.0750    2.0870 h1        1 MOL      0.156395
     79 N8         -6.0140    0.7290    1.6920 n         1 MOL     -0.431810
     80 C25        -5.0530    1.8190    1.4140 c3        1 MOL     -0.015220
     81 C26        -4.8370    2.0510   -0.0800 c         1 MOL      0.525709
     82 O14        -4.7740    1.1850   -0.9860 o         1 MOL     -0.491022
     83 C27        -3.6950    1.5240    2.0500 c3        1 MOL      0.576994
     84 C28        -3.7330    1.5720    3.5860 c3        1 MOL     -0.340083
     85 O15        -2.7330    2.4210    1.6190 oh        1 MOL     -0.699071
     86 H35        -5.6690   -0.2210    1.6400 hn        1 MOL      0.186312
     87 H36        -5.4680    2.7470    1.8260 h1        1 MOL      0.079420
     88 H37        -3.3490    0.5650    1.6580 h1        1 MOL     -0.057608
     89 H38        -1.8990    2.1800    2.0300 ho        1 MOL      0.500342
     90 H39        -2.7710    1.8760    3.9960 hc        1 MOL      0.061735
     91 H40        -4.4710    2.3300    3.8670 hc        1 MOL      0.061735
     92 H41        -3.9740    0.5820    3.9720 hc        1 MOL      0.061735
     93 N9         -4.6720    3.3900   -0.3790 n         1 MOL     -0.275245
     94 C29        -4.4370    3.8980   -1.7960 c3        1 MOL     -0.177450
     95 C30        -2.9860    4.4200   -1.8680 c         1 MOL      0.492704
     96 O16        -2.6200    5.0930   -2.8350 o         1 MOL     -0.583135
     97 C31        -5.5470    4.8580   -2.2880 c3        1 MOL      0.170595
     98 C32        -5.6390    6.1810   -1.4200 c3        1 MOL      0.015204
     99 C33        -6.9060    4.2220   -2.2320 c3        1 MOL     -0.153939
    100 C34        -6.5970    7.2760   -1.8810 c3        1 MOL     -0.275709
    101 H42        -4.7640    4.0920    0.3530 hn        1 MOL      0.201035
    102 H43        -4.4530    3.0360   -2.4540 h1        1 MOL      0.146381
    103 H44        -5.3800    5.0610   -3.3440 hc        1 MOL      0.024519
    104 H45        -4.6310    6.5990   -1.4030 hc        1 MOL      0.025459
    105 H46        -5.9610    5.9120   -0.4080 hc        1 MOL      0.025459
    106 H47        -6.9950    3.3590   -2.9040 hc        1 MOL      0.035299
    107 H48        -7.0990    3.8760   -1.2150 hc        1 MOL      0.035299
    108 H49        -7.6040    4.9850   -2.5590 hc        1 MOL      0.035299
    109 H50        -6.2650    7.6130   -2.8560 hc        1 MOL      0.071422
    110 H51        -7.6180    6.8930   -1.9740 hc        1 MOL      0.071422
    111 H52        -6.6740    8.0520   -1.1190 hc        1 MOL      0.071422
    112 N10        -2.1780    4.2150   -0.8620 n         1 MOL     -0.152309
    113 C35        -1.0050    4.9740   -0.4410 c3        1 MOL     -0.066001
    114 C36         0.2070    4.0330   -0.4220 c         1 MOL      0.494451
    115 O17         0.4630    3.2990    0.5280 o         1 MOL     -0.463320
    116 C37        -1.2550    5.6210    0.9620 c3        1 MOL      0.321687
    117 C38        -2.5770    6.4100    1.1370 c3        1 MOL     -0.143494
    118 O18        -0.2500    6.6210    1.0920 oh        1 MOL     -0.603976
    119 H53        -2.4290    3.5060   -0.1940 hn        1 MOL      0.080230
    120 H54        -0.9350    5.7560   -1.1930 h1        1 MOL      0.118944
    121 H55        -1.3620    4.8890    1.7640 h1        1 MOL     -0.005896
    122 H56        -0.3410    6.8560    2.0240 ho        1 MOL      0.387870
    123 H57        -2.6690    6.7120    2.1850 hc        1 MOL      0.025945
    124 H58        -2.7220    7.3010    0.5300 hc        1 MOL      0.025945
    125 H59        -3.4850    5.8440    0.8760 hc        1 MOL      0.025945
    126 N11         1.0410    4.1510   -1.4600 n         1 MOL     -0.479345
    127 C39         2.3460    3.4560   -1.4780 c3        1 MOL      0.086700
    128 C40         3.4910    4.1830   -0.7250 c         1 MOL      0.555383
    129 O19         3.3290    5.3230   -0.2440 o         1 MOL     -0.492388
    130 C41         2.6690    3.0420   -2.9100 c3        1 MOL      0.330155
    131 C42         3.5580    4.0710   -3.6420 c3        1 MOL     -0.421944
    132 O20         1.4910    2.7310   -3.6950 oh        1 MOL     -0.573178
    133 H60         0.7690    4.6800   -2.2810 hn        1 MOL      0.316028
    134 H61         2.1610    2.5090   -0.9630 h1        1 MOL      0.054057
    135 H62         3.2790    2.1420   -2.9250 h1        1 MOL     -0.016145
    136 H63         1.8180    2.2890   -4.4840 ho        1 MOL      0.388444
    137 H64         3.0090    4.9950   -3.8160 hc        1 MOL      0.101505
    138 H65         4.4680    4.2960   -3.0850 hc        1 MOL      0.101505
    139 H66         3.8650    3.6220   -4.5940 hc        1 MOL      0.101505
    140 N12         4.5320    3.3970   -0.5540 n         1 MOL     -0.503849
    141 C43         5.8680    3.7340   -0.0010 c3        1 MOL      0.049671
    142 C44         6.3900    2.7810    1.0990 c         1 MOL      0.446997
    143 O21         7.6040    2.7150    1.2880 o         1 MOL     -0.540516
    144 C45         6.9600    3.8600   -1.1730 c3        1 MOL     -0.053157
    145 C46         7.2550    2.6040   -2.0100 c3        1 MOL      0.119916
    146 C47         7.5390    3.0800   -3.4840 c3        1 MOL     -0.231020
    147 C48         7.8850    1.9210   -4.4540 c3        1 MOL      0.082211
    148 N13         8.2860    2.5110   -5.7900 n4        1 MOL     -0.138325
    149 H67         4.5250    2.5260   -1.0700 hn        1 MOL      0.246618
    150 H68         5.7790    4.6960    0.4960 h1        1 MOL      0.107599
    151 H69         7.9110    4.0580   -0.6880 hc        1 MOL      0.047569
    152 H70         6.8180    4.8230   -1.6870 hc        1 MOL      0.047569
    153 H71         6.3860    1.9610   -1.9410 hc        1 MOL     -0.000534
    154 H72         8.0510    1.9860   -1.5880 hc        1 MOL     -0.000534
    155 H73         8.4290    3.6960   -3.3630 hc        1 MOL      0.071324
    156 H74         6.6670    3.6200   -3.8590 hc        1 MOL      0.071324
    157 H75         7.0960    1.1870   -4.6200 hx        1 MOL      0.073077
    158 H76         8.7700    1.3820   -4.1420 hx        1 MOL      0.073077
    159 H77         8.4920    1.8160   -6.4940 hn        1 MOL      0.209343
    160 H78         7.6070    3.1420   -6.1920 hn        1 MOL      0.209343
    161 H79         9.0860    3.1210   -5.7260 hn        1 MOL      0.209343
    162 N14         5.5620    2.1280    1.8480 n         1 MOL     -0.287796
    163 C49         5.8390    1.1370    2.8910 c3        1 MOL     -0.039802
    164 C50         6.3040   -0.2310    2.3120 c         1 MOL      0.274053
    165 O22         5.5970   -1.2230    2.3450 o         1 MOL     -0.407976
    166 C51         4.6400    1.0730    3.8100 c3        1 MOL      0.045350
    167 C52         4.8120    0.2750    5.1340 c3        1 MOL     -0.098377
    168 C53         3.5550    0.1980    6.0520 c         1 MOL      0.691651
    169 O23         3.8210    0.3980    7.2870 o         1 MOL     -0.714534
    170 O24         2.4720    0.0560    5.5260 o         1 MOL     -0.714534
    171 H80         4.5940    2.3600    1.6980 hn        1 MOL      0.273778
    172 H81         6.6450    1.4720    3.5430 h1        1 MOL      0.080180
    173 H82         3.7470    0.8200    3.2380 hc        1 MOL      0.005469
    174 H83         4.5010    2.1080    4.1110 hc        1 MOL      0.005469
    175 H84         5.5970    0.7970    5.6770 hc        1 MOL      0.032059
    176 H85         5.1220   -0.7600    4.9730 hc        1 MOL      0.032059
    177 N15         7.5730   -0.3810    1.9400 n         1 MOL     -0.223311
    178 C54         8.2510   -1.5970    1.4570 c3        1 MOL     -0.088072
    179 H86         9.0610   -1.8570    2.1390 h1        1 MOL      0.074780
    180 H87         7.5370   -2.4190    1.4130 h1        1 MOL      0.074780
    181 H88         8.6590   -1.4150    0.4630 h1        1 MOL      0.074780
    182 H89         8.1980    0.4160    1.9950 hn        1 MOL      0.245194
    183 Ca1         1.3290   -1.9790    4.4430 Ca        1 MOL      1.813573
    184 O25        -0.7600   -0.0510    5.1140 oh        1 MOL     -0.995631
    185 H90        -0.9050    0.4510    4.3130 ho        1 MOL      0.479924
    186 H91        -1.1140    0.4960    5.8070 ho        1 MOL      0.479924
    187 O26         1.0100   -3.9420    2.7250 oh        1 MOL     -0.995631
    188 H92         0.3360   -4.1360    2.0700 ho        1 MOL      0.479924
    189 H93         1.8460   -4.0870    2.2690 ho        1 MOL      0.479924
    190 O27         3.4110   -3.5260    5.1680 oh        1 MOL     -0.995631
    191 H94         3.6870   -4.0630    4.4260 ho        1 MOL      0.479924
    192 H95         3.8150   -3.9470    5.9280 ho        1 MOL      0.479924
    193 O28         3.1500   -1.9500    2.4340 oh        1 MOL     -0.995631
    194 H96         2.8180   -1.6880    1.5780 ho        1 MOL      0.479924
    195 H97         4.0200   -1.5760    2.4920 ho        1 MOL      0.479924
@<TRIPOS>BOND
     1    1    2 1   
     2    1    4 1   
     3    1    5 1   
     4    1    6 1   
     5    2    3 2   
     6    2    7 1   
     7    7    8 1   
     8    7   15 1   
     9    8    9 1   
    10    8   11 1   
    11    8   16 1   
    12    9   10 2   
    13    9   19 1   
    14   11   12 1   
    15   11   17 1   
    16   11   18 1   
    17   12   13 1   
    18   12   14 1   
    19   19   20 1   
    20   19   28 1   
    21   20   21 1   
    22   20   23 1   
    23   20   29 1   
    24   21   22 2   
    25   21   41 1   
    26   23   24 1   
    27   23   30 1   
    28   23   31 1   
    29   24   25 1   
    30   24   32 1   
    31   24   33 1   
    32   25   26 1   
    33   25   34 1   
    34   25   35 1   
    35   26   27 1   
    36   26   36 1   
    37   26   37 1   
    38   27   38 1   
    39   27   39 1   
    40   27   40 1   
    41   41   42 1   
    42   41   49 1   
    43   42   43 1   
    44   42   45 1   
    45   42   50 1   
    46   43   44 2   
    47   43   53 1   
    48   45   46 1   
    49   45   51 1   
    50   45   52 1   
    51   46   47 1   
    52   46   48 1   
    53   53   54 1   
    54   53   57 1   
    55   54   55 1   
    56   54   58 1   
    57   54   59 1   
    58   55   56 2   
    59   55   60 1   
    60   60   61 1   
    61   60   68 1   
    62   61   62 1   
    63   61   64 1   
    64   61   69 1   
    65   62   63 2   
    66   62   72 1   
    67   64   65 1   
    68   64   70 1   
    69   64   71 1   
    70   65   66 1   
    71   65   67 1   
    72   72   73 1   
    73   72   76 1   
    74   73   74 1   
    75   73   77 1   
    76   73   78 1   
    77   74   75 2   
    78   74   79 1   
    79   79   80 1   
    80   79   86 1   
    81   80   81 1   
    82   80   83 1   
    83   80   87 1   
    84   81   82 2   
    85   81   93 1   
    86   83   84 1   
    87   83   85 1   
    88   83   88 1   
    89   84   90 1   
    90   84   91 1   
    91   84   92 1   
    92   85   89 1   
    93   93   94 1   
    94   93  101 1   
    95   94   95 1   
    96   94   97 1   
    97   94  102 1   
    98   95   96 2   
    99   95  112 1   
   100   97   98 1   
   101   97   99 1   
   102   97  103 1   
   103   98  100 1   
   104   98  104 1   
   105   98  105 1   
   106   99  106 1   
   107   99  107 1   
   108   99  108 1   
   109  100  109 1   
   110  100  110 1   
   111  100  111 1   
   112  112  113 1   
   113  112  119 1   
   114  113  114 1   
   115  113  116 1   
   116  113  120 1   
   117  114  115 2   
   118  114  126 1   
   119  116  117 1   
   120  116  118 1   
   121  116  121 1   
   122  117  123 1   
   123  117  124 1   
   124  117  125 1   
   125  118  122 1   
   126  126  127 1   
   127  126  133 1   
   128  127  128 1   
   129  127  130 1   
   130  127  134 1   
   131  128  129 2   
   132  128  140 1   
   133  130  131 1   
   134  130  132 1   
   135  130  135 1   
   136  131  137 1   
   137  131  138 1   
   138  131  139 1   
   139  132  136 1   
   140  140  141 1   
   141  140  149 1   
   142  141  142 1   
   143  141  144 1   
   144  141  150 1   
   145  142  143 2   
   146  142  162 1   
   147  144  145 1   
   148  144  151 1   
   149  144  152 1   
   150  145  146 1   
   151  145  153 1   
   152  145  154 1   
   153  146  147 1   
   154  146  155 1   
   155  146  156 1   
   156  147  148 1   
   157  147  157 1   
   158  147  158 1   
   159  148  159 1   
   160  148  160 1   
   161  148  161 1   
   162  162  163 1   
   163  162  171 1   
   164  163  164 1   
   165  163  166 1   
   166  163  172 1   
   167  164  165 2   
   168  164  177 1   
   169  166  167 1   
   170  166  173 1   
   171  166  174 1   
   172  167  168 1   
   173  167  175 1   
   174  167  176 1   
   175  168  169 1   
   176  168  170 1   
   177  177  178 1   
   178  177  182 1   
   179  178  179 1   
   180  178  180 1   
   181  178  181 1   
   182  184  185 1   
   183  184  186 1   
   184  187  188 1   
   185  187  189 1   
   186  190  191 1   
   187  190  192 1   
   188  193  194 1   
   189  193  195 1   
@<TRIPOS>SUBSTRUCTURE
     1 MOL         1 TEMP              0 ****  ****    0 ROOT
