@<TRIPOS>MOLECULE
MOL
  186   183     1     0     0
SMALL
resp


@<TRIPOS>ATOM
      1 C1          8.7920   -1.1790    2.8920 c3        1 MOL     -0.488144
      2 C2          7.8280   -0.6000    1.8300 c         1 MOL      0.874352
      3 O1          6.5710   -0.5850    1.9880 o         1 MOL     -0.697073
      4 H1          8.2380   -1.8310    3.5680 hc        1 MOL      0.119660
      5 H2          9.5770   -1.7520    2.3970 hc        1 MOL      0.119660
      6 H3          9.2390   -0.3640    3.4600 hc        1 MOL      0.119660
      7 N1          8.4050   -0.2310    0.6860 n         1 MOL     -0.804858
      8 C3          7.6090    0.1300   -0.5410 c3        1 MOL      0.411526
      9 C4          7.1430   -1.0590   -1.3420 c         1 MOL      0.391280
     10 O2          7.3960   -1.2650   -2.5390 o         1 MOL     -0.429096
     11 C5          8.4530    1.1230   -1.3250 c3        1 MOL     -0.345258
     12 C6          7.7840    1.7670   -2.5180 c         1 MOL      0.615944
     13 O3          8.4700    2.1780   -3.4510 o         1 MOL     -0.555300
     14 O4          6.5040    1.7460   -2.5730 o         1 MOL     -0.555300
     15 H4          9.3900   -0.1280    0.5040 hn        1 MOL      0.369232
     16 H5          6.7260    0.6740   -0.2040 h1        1 MOL      0.020898
     17 H6          9.3000    0.5060   -1.6490 hc        1 MOL      0.066498
     18 H7          8.8960    1.8480   -0.6410 hc        1 MOL      0.066498
     19 N2          6.4430   -1.9760   -0.6090 n         1 MOL     -0.309100
     20 C7          5.8000   -3.2290   -1.1170 c3        1 MOL      0.335759
     21 C8          4.5150   -3.1320   -1.8300 c         1 MOL      0.392093
     22 O5          4.3840   -3.7270   -2.9380 o         1 MOL     -0.558789
     23 C9          5.9320   -4.2680   -0.0550 c3        1 MOL     -0.315511
     24 C10         7.3490   -4.8830    0.0630 c3        1 MOL      0.211536
     25 C11         7.3300   -5.9420    1.1220 c3        1 MOL      0.057050
     26 C12         8.7670   -6.4870    1.4470 c3        1 MOL      0.058066
     27 N3          8.8190   -7.4770    2.5800 n4        1 MOL     -0.164351
     28 H8          6.2340   -1.7560    0.3570 hn        1 MOL      0.139660
     29 H9          6.5670   -3.4860   -1.8520 h1        1 MOL     -0.027696
     30 H10         5.1940   -5.0340   -0.2980 hc        1 MOL      0.056672
     31 H11         5.7550   -3.8490    0.9370 hc        1 MOL      0.056672
     32 H12         8.0250   -4.0450    0.2030 hc        1 MOL     -0.031788
     33 H13         7.6890   -5.3410   -0.8590 hc        1 MOL     -0.031788
     34 H14         6.7140   -6.7860    0.8270 hc        1 MOL     -0.000621
     35 H15         7.0280   -5.4450    2.0440 hc        1 MOL     -0.000621
     36 H16         9.4090   -5.6200    1.6040 hx        1 MOL      0.042061
     37 H17         9.1350   -6.9850    0.5480 hx        1 MOL      0.042061
     38 H18         9.7740   -7.7690    2.7720 hn        1 MOL      0.215590
     39 H19         8.5940   -7.0120    3.4450 hn        1 MOL      0.215590
     40 H20         8.3160   -8.3560    2.5120 hn        1 MOL      0.215590
     41 N4          3.4880   -2.4260   -1.3650 n         1 MOL     -0.067439
     42 C13         3.4280   -1.9080   -0.0270 c3        1 MOL     -0.364746
     43 C14         3.3840   -0.3810   -0.1960 c         1 MOL      0.450290
     44 O6          2.8930    0.0680   -1.2410 o         1 MOL     -0.533257
     45 C15         2.1570   -2.5180    0.7510 c3        1 MOL     -0.468101
     46 C16         0.8550   -2.4700    0.0310 c         1 MOL      1.008054
     47 O7          0.6440   -1.6940   -0.8710 o         1 MOL     -0.734164
     48 O8          0.1120   -3.4620    0.2650 o         1 MOL     -0.734164
     49 H21         2.6890   -2.4180   -1.9810 hn        1 MOL      0.242192
     50 H22         4.2970   -2.1140    0.5790 h1        1 MOL      0.223725
     51 H23         2.0980   -1.9800    1.6920 hc        1 MOL      0.131930
     52 H24         2.5380   -3.4910    1.0910 hc        1 MOL      0.131930
     53 N5          3.8220    0.4690    0.7650 n         1 MOL     -0.202164
     54 C17         4.0260    1.9190    0.5460 c3        1 MOL     -0.017173
     55 C18         2.7890    2.6630    0.1220 c         1 MOL      0.498156
     56 O9          1.7180    2.1370    0.2400 o         1 MOL     -0.549844
     57 H25         4.0730    0.1400    1.6890 hn        1 MOL      0.271777
     58 H26         4.7520    2.1150   -0.2480 h1        1 MOL      0.047878
     59 H27         4.3310    2.3910    1.4810 h1        1 MOL      0.047878
     60 N6          3.0710    3.8150   -0.4870 n         1 MOL     -0.292856
     61 C19         2.0720    4.8450   -0.9240 c3        1 MOL      0.209684
     62 C20         2.4980    6.2670   -0.4520 c         1 MOL      0.344685
     63 O10         3.6960    6.5570   -0.4500 o         1 MOL     -0.498580
     64 C21         1.9840    4.9240   -2.4460 c3        1 MOL     -0.199732
     65 C22         1.8110    3.6470   -3.1090 c         1 MOL      0.579306
     66 O11         2.6420    3.1770   -3.9140 o         1 MOL     -0.559394
     67 O12         0.8470    2.9830   -2.7250 o         1 MOL     -0.559394
     68 H28         4.0270    4.1070   -0.3530 hn        1 MOL      0.236510
     69 H29         1.0720    4.5940   -0.5640 h1        1 MOL     -0.019845
     70 H30         2.9370    5.2810   -2.8410 hc        1 MOL      0.076465
     71 H31         1.2130    5.6060   -2.7970 hc        1 MOL      0.076465
     72 N7          1.5650    7.1550   -0.0300 n         1 MOL     -0.338888
     73 C23         0.1460    6.9540   -0.1970 c3        1 MOL     -0.080502
     74 C24        -0.4420    5.9510    0.8810 c         1 MOL      0.605911
     75 O13         0.1290    5.8390    2.0010 o         1 MOL     -0.533054
     76 H32         1.9180    8.0180    0.3390 hn        1 MOL      0.296899
     77 H33        -0.0890    6.6320   -1.2130 h1        1 MOL      0.070562
     78 H34        -0.3720    7.9120   -0.0800 h1        1 MOL      0.070562
     79 N8         -1.5060    5.2020    0.5370 n         1 MOL     -0.700577
     80 C25        -2.1300    4.3110    1.5090 c3        1 MOL      0.263099
     81 C26        -1.4300    2.9350    1.5210 c         1 MOL      0.577504
     82 O14        -1.1010    2.3800    0.4540 o         1 MOL     -0.595847
     83 C27        -3.6120    4.0710    1.1910 c3        1 MOL      0.545669
     84 C28        -4.4100    5.2080    1.7730 c3        1 MOL     -0.325763
     85 O15        -3.9900    2.9140    1.7650 oh        1 MOL     -0.731457
     86 H35        -1.9600    5.2900   -0.3630 hn        1 MOL      0.347895
     87 H36        -2.0440    4.7650    2.4930 h1        1 MOL      0.002193
     88 H37        -3.7570    4.0610    0.1060 h1        1 MOL     -0.019571
     89 H38        -4.7390    2.6850    1.2080 ho        1 MOL      0.380581
     90 H39        -4.5540    5.0150    2.8390 hc        1 MOL      0.058917
     91 H40        -3.8490    6.1200    1.5760 hc        1 MOL      0.058917
     92 H41        -5.3010    5.2140    1.1450 hc        1 MOL      0.058917
     93 N9         -1.2110    2.5120    2.7370 n         1 MOL     -0.175031
     94 C29        -0.5240    1.3210    3.2770 c3        1 MOL     -0.520215
     95 C30        -0.8020    0.0620    2.4170 c         1 MOL      0.491960
     96 O16        -0.1800   -0.1590    1.4230 o         1 MOL     -0.391459
     97 C31         0.9910    1.5690    3.5970 c3        1 MOL      0.643501
     98 C32         1.2960    2.9340    4.1210 c3        1 MOL      0.267447
     99 C33         1.3500    0.4750    4.6510 c3        1 MOL     -0.262363
    100 C34         2.7550    3.2520    3.9830 c3        1 MOL     -0.254714
    101 H42        -1.4950    3.2200    3.4000 hn        1 MOL      0.199501
    102 H43        -1.0550    1.0510    4.1880 h1        1 MOL      0.104791
    103 H44         1.6350    1.2830    2.7690 hc        1 MOL     -0.226140
    104 H45         1.0090    2.8900    5.1720 hc        1 MOL     -0.107484
    105 H46         0.6780    3.6470    3.5710 hc        1 MOL     -0.107484
    106 H47         0.7940    0.5820    5.5880 hc        1 MOL      0.038947
    107 H48         1.3130   -0.5700    4.3390 hc        1 MOL      0.038947
    108 H49         2.3500    0.6960    5.0120 hc        1 MOL      0.038947
    109 H50         2.7760    3.6750    2.9810 hc        1 MOL      0.051501
    110 H51         3.1000    3.9550    4.7350 hc        1 MOL      0.051501
    111 H52         3.3400    2.3280    4.0380 hc        1 MOL      0.051501
    112 N10        -1.7340   -0.7550    2.8640 n         1 MOL     -0.308403
    113 C35        -2.2010   -1.9160    2.1130 c3        1 MOL     -0.455438
    114 C36        -3.7430   -1.8910    1.7060 c         1 MOL      0.753472
    115 O17        -4.0900   -2.7610    0.8800 o         1 MOL     -0.566932
    116 C37        -1.9620   -3.2520    2.8940 c3        1 MOL      0.546816
    117 C38        -2.4000   -3.2180    4.3230 c3        1 MOL     -0.218544
    118 O18        -0.5830   -3.6540    2.7980 oh        1 MOL     -0.632390
    119 H53        -2.2080   -0.4960    3.7130 hn        1 MOL      0.268597
    120 H54        -1.7390   -1.9010    1.1290 h1        1 MOL      0.313863
    121 H55        -2.6070   -3.9650    2.3810 h1        1 MOL     -0.071673
    122 H56        -0.3560   -3.5350    1.8740 ho        1 MOL      0.334956
    123 H57        -2.3080   -4.2080    4.7640 hc        1 MOL      0.037125
    124 H58        -1.6660   -2.5890    4.8150 hc        1 MOL      0.037125
    125 H59        -3.3790   -2.7620    4.4210 hc        1 MOL      0.037125
    126 N11        -4.6520   -0.9970    2.2560 n         1 MOL     -0.471168
    127 C39        -6.1490   -1.1420    2.0960 c3        1 MOL     -0.303934
    128 C40        -6.5520   -0.9410    0.6220 c         1 MOL      0.609271
    129 O19        -6.5500    0.1530    0.0320 o         1 MOL     -0.505351
    130 C41        -6.8190   -0.0770    3.0430 c3        1 MOL      0.369663
    131 C42        -8.2920   -0.1620    3.0030 c3        1 MOL     -0.545376
    132 O20        -6.5570   -0.2860    4.4220 oh        1 MOL     -0.607566
    133 H60        -4.4200   -0.4080    3.0410 hn        1 MOL      0.323162
    134 H61        -6.4120   -2.1580    2.3740 h1        1 MOL      0.135824
    135 H62        -6.4850    0.9120    2.7300 h1        1 MOL      0.112030
    136 H63        -7.1010   -1.0190    4.7210 ho        1 MOL      0.402321
    137 H64        -8.6660   -0.8570    3.7510 hc        1 MOL      0.143477
    138 H65        -8.7010    0.7930    3.3430 hc        1 MOL      0.143477
    139 H66        -8.7270   -0.3870    2.0270 hc        1 MOL      0.143477
    140 N12        -6.9910   -2.0270    0.0180 n         1 MOL     -0.455569
    141 C43        -7.4000   -2.1380   -1.4870 c3        1 MOL      0.317434
    142 C44        -6.1980   -1.6450   -2.4360 c         1 MOL      0.423401
    143 O21        -6.3330   -0.7790   -3.2690 o         1 MOL     -0.471051
    144 C45        -8.6550   -1.2670   -1.7590 c3        1 MOL     -0.529789
    145 C46        -9.8880   -1.8610   -1.0940 c3        1 MOL      0.230398
    146 C47       -11.2290   -1.2380   -1.5840 c3        1 MOL     -0.106448
    147 C48       -12.3790   -1.9270   -0.8910 c3        1 MOL     -0.023214
    148 N13       -12.5020   -3.3390   -1.2430 n4        1 MOL     -0.110324
    149 H67        -7.0430   -2.8540    0.5890 hn        1 MOL      0.236600
    150 H68        -7.6540   -3.1550   -1.7710 h1        1 MOL      0.018739
    151 H69        -8.8170   -1.3000   -2.8330 hc        1 MOL      0.164632
    152 H70        -8.6240   -0.2190   -1.4590 hc        1 MOL      0.164632
    153 H71        -9.8310   -1.7400   -0.0140 hc        1 MOL     -0.047108
    154 H72        -9.8670   -2.9500   -1.2110 hc        1 MOL     -0.047108
    155 H73       -11.3790   -1.3780   -2.6470 hc        1 MOL      0.079875
    156 H74       -11.2360   -0.1990   -1.2350 hc        1 MOL      0.079875
    157 H75       -13.1980   -1.2920   -1.2490 hx        1 MOL      0.075638
    158 H76       -12.3180   -1.8390    0.1930 hx        1 MOL      0.075638
    159 H77       -12.4540   -3.5980   -2.2200 hn        1 MOL      0.179067
    160 H78       -11.8200   -3.8580   -0.7000 hn        1 MOL      0.179067
    161 H79       -13.3780   -3.7570   -0.9540 hn        1 MOL      0.179067
    162 N14        -4.9780   -2.1180   -2.0950 n         1 MOL     -0.717984
    163 C49        -3.7230   -1.6050   -2.5310 c3        1 MOL      0.696130
    164 C50        -2.5580   -1.8220   -1.5630 c         1 MOL      0.173542
    165 O22        -1.9370   -0.8770   -1.1010 o         1 MOL     -0.650694
    166 C51        -3.4050   -1.8900   -4.0380 c3        1 MOL     -0.170888
    167 C52        -1.9990   -1.6160   -4.5970 c3        1 MOL     -0.219438
    168 C53        -1.5450   -0.1250   -4.3170 c         1 MOL      0.805896
    169 O23        -0.4030    0.0710   -3.7810 o         1 MOL     -0.720526
    170 O24        -2.2200    0.8570   -4.6940 o         1 MOL     -0.720526
    171 H80        -4.9980   -2.7860   -1.3460 hn        1 MOL      0.314163
    172 H81        -3.7080   -0.5130   -2.5960 h1        1 MOL     -0.042388
    173 H82        -4.0040   -1.2470   -4.6850 hc        1 MOL      0.034931
    174 H83        -3.6290   -2.9350   -4.2640 hc        1 MOL      0.034931
    175 H84        -2.0950   -1.7850   -5.6800 hc        1 MOL      0.052481
    176 H85        -1.3250   -2.3820   -4.2130 hc        1 MOL      0.052481
    177 N15        -2.1650   -3.0320   -1.2730 n         1 MOL     -0.044957
    178 C54        -2.5020   -4.2960   -1.9810 c3        1 MOL     -0.266909
    179 H86        -1.9820   -4.3260   -2.9380 h1        1 MOL      0.090050
    180 H87        -2.1940   -5.1460   -1.3740 h1        1 MOL      0.090050
    181 H88        -3.5780   -4.3410   -2.1510 h1        1 MOL      0.090050
    182 H89        -1.4500   -3.0390   -0.5560 hn        1 MOL      0.227500
    183 Ca1         0.1290    0.7450   -1.3620 Ca        1 MOL      1.715189
    184 O25        -2.4850    2.1170   -2.1260 oh        1 MOL     -0.944869
    185 H90        -2.4170    1.6550   -2.9590 ho        1 MOL      0.431662
    186 H91        -3.4280    2.2170   -1.9790 ho        1 MOL      0.431662
@<TRIPOS>BOND
     1    1    2 1   
     2    1    4 1   
     3    1    5 1   
     4    1    6 1   
     5    2    3 2   
     6    2    7 1   
     7    7    8 1   
     8    7   15 1   
     9    8    9 1   
    10    8   11 1   
    11    8   16 1   
    12    9   10 2   
    13    9   19 1   
    14   11   12 1   
    15   11   17 1   
    16   11   18 1   
    17   12   13 1   
    18   12   14 1   
    19   19   20 1   
    20   19   28 1   
    21   20   21 1   
    22   20   23 1   
    23   20   29 1   
    24   21   22 2   
    25   21   41 1   
    26   23   24 1   
    27   23   30 1   
    28   23   31 1   
    29   24   25 1   
    30   24   32 1   
    31   24   33 1   
    32   25   26 1   
    33   25   34 1   
    34   25   35 1   
    35   26   27 1   
    36   26   36 1   
    37   26   37 1   
    38   27   38 1   
    39   27   39 1   
    40   27   40 1   
    41   41   42 1   
    42   41   49 1   
    43   42   43 1   
    44   42   45 1   
    45   42   50 1   
    46   43   44 2   
    47   43   53 1   
    48   45   46 1   
    49   45   51 1   
    50   45   52 1   
    51   46   47 1   
    52   46   48 1   
    53   53   54 1   
    54   53   57 1   
    55   54   55 1   
    56   54   58 1   
    57   54   59 1   
    58   55   56 2   
    59   55   60 1   
    60   60   61 1   
    61   60   68 1   
    62   61   62 1   
    63   61   64 1   
    64   61   69 1   
    65   62   63 2   
    66   62   72 1   
    67   64   65 1   
    68   64   70 1   
    69   64   71 1   
    70   65   66 1   
    71   65   67 1   
    72   72   73 1   
    73   72   76 1   
    74   73   74 1   
    75   73   77 1   
    76   73   78 1   
    77   74   75 2   
    78   74   79 1   
    79   79   80 1   
    80   79   86 1   
    81   80   81 1   
    82   80   83 1   
    83   80   87 1   
    84   81   82 2   
    85   81   93 1   
    86   83   84 1   
    87   83   85 1   
    88   83   88 1   
    89   84   90 1   
    90   84   91 1   
    91   84   92 1   
    92   85   89 1   
    93   93   94 1   
    94   93  101 1   
    95   94   95 1   
    96   94   97 1   
    97   94  102 1   
    98   95   96 2   
    99   95  112 1   
   100   97   98 1   
   101   97   99 1   
   102   97  103 1   
   103   98  100 1   
   104   98  104 1   
   105   98  105 1   
   106   99  106 1   
   107   99  107 1   
   108   99  108 1   
   109  100  109 1   
   110  100  110 1   
   111  100  111 1   
   112  112  113 1   
   113  112  119 1   
   114  113  114 1   
   115  113  116 1   
   116  113  120 1   
   117  114  115 2   
   118  114  126 1   
   119  116  117 1   
   120  116  118 1   
   121  116  121 1   
   122  117  123 1   
   123  117  124 1   
   124  117  125 1   
   125  118  122 1   
   126  126  127 1   
   127  126  133 1   
   128  127  128 1   
   129  127  130 1   
   130  127  134 1   
   131  128  129 2   
   132  128  140 1   
   133  130  131 1   
   134  130  132 1   
   135  130  135 1   
   136  131  137 1   
   137  131  138 1   
   138  131  139 1   
   139  132  136 1   
   140  140  141 1   
   141  140  149 1   
   142  141  142 1   
   143  141  144 1   
   144  141  150 1   
   145  142  143 2   
   146  142  162 1   
   147  144  145 1   
   148  144  151 1   
   149  144  152 1   
   150  145  146 1   
   151  145  153 1   
   152  145  154 1   
   153  146  147 1   
   154  146  155 1   
   155  146  156 1   
   156  147  148 1   
   157  147  157 1   
   158  147  158 1   
   159  148  159 1   
   160  148  160 1   
   161  148  161 1   
   162  162  163 1   
   163  162  171 1   
   164  163  164 1   
   165  163  166 1   
   166  163  172 1   
   167  164  165 2   
   168  164  177 1   
   169  166  167 1   
   170  166  173 1   
   171  166  174 1   
   172  167  168 1   
   173  167  175 1   
   174  167  176 1   
   175  168  169 1   
   176  168  170 1   
   177  177  178 1   
   178  177  182 1   
   179  178  179 1   
   180  178  180 1   
   181  178  181 1   
   182  184  185 1   
   183  184  186 1   
@<TRIPOS>SUBSTRUCTURE
     1 MOL         1 TEMP              0 ****  ****    0 ROOT
