@<TRIPOS>MOLECULE
MOL
  182   178     1     0     0
SMALL
resp


@<TRIPOS>ATOM
      1 C1          0.3580   -4.1520    5.7860 c3        1 MOL     -0.386986
      2 C2          0.4260   -3.9920    4.2590 c         1 MOL      0.770084
      3 O1         -0.6050   -4.1370    3.5910 o         1 MOL     -0.572186
      4 H1          1.3350   -3.9310    6.2170 hc        1 MOL      0.112275
      5 H2         -0.3820   -3.4620    6.1920 hc        1 MOL      0.112275
      6 H3          0.0770   -5.1760    6.0330 hc        1 MOL      0.112275
      7 N1          1.7000   -3.7390    3.7140 n         1 MOL     -0.629842
      8 C3          1.9150   -3.3030    2.3050 c3        1 MOL      0.137080
      9 C4          2.0080   -4.4210    1.3070 c         1 MOL      0.472083
     10 O2          2.4350   -5.5230    1.6570 o         1 MOL     -0.543490
     11 C5          3.1530   -2.4330    2.3010 c3        1 MOL     -0.048534
     12 C6          3.5310   -1.5340    1.1120 c         1 MOL      0.531036
     13 O3          4.0990   -0.4670    1.2860 o         1 MOL     -0.630052
     14 O4          3.3340   -1.8450   -0.0720 o         1 MOL     -0.630052
     15 H4          2.3760   -3.5100    4.4400 hn        1 MOL      0.334151
     16 H5          1.0100   -2.7740    1.9940 h1        1 MOL     -0.124763
     17 H6          4.0200   -3.0550    2.5260 hc        1 MOL      0.054681
     18 H7          3.0370   -1.7850    3.1690 hc        1 MOL      0.054681
     19 N2          1.7480   -4.1660    0.0260 n         1 MOL     -0.093781
     20 C7          1.9340   -5.1640   -1.0580 c3        1 MOL     -0.045370
     21 C8          3.2570   -5.0780   -1.8970 c         1 MOL      0.401540
     22 O5          3.6490   -6.0660   -2.5560 o         1 MOL     -0.557165
     23 C9          0.6270   -5.0810   -1.8950 c3        1 MOL      0.190927
     24 C10        -0.6400   -5.6780   -1.2400 c3        1 MOL     -0.154035
     25 C11        -1.9220   -5.6640   -2.1310 c3        1 MOL      0.125849
     26 C12        -2.8960   -6.6420   -1.5520 c3        1 MOL      0.130653
     27 N3         -4.1220   -6.8480   -2.4060 n4        1 MOL     -0.282413
     28 H8          1.3870   -3.2770   -0.2940 hn        1 MOL      0.133991
     29 H9          1.8610   -6.1530   -0.6160 h1        1 MOL      0.086510
     30 H10         0.7840   -5.7590   -2.7300 hc        1 MOL     -0.045186
     31 H11         0.4920   -4.0980   -2.3570 hc        1 MOL     -0.045186
     32 H12        -0.8500   -5.1010   -0.3410 hc        1 MOL      0.043453
     33 H13        -0.3730   -6.7140   -1.0280 hc        1 MOL      0.043453
     34 H14        -1.6240   -6.0130   -3.1170 hc        1 MOL     -0.017771
     35 H15        -2.3410   -4.6530   -2.1940 hc        1 MOL     -0.017771
     36 H16        -3.1640   -6.3580   -0.5380 hx        1 MOL      0.043867
     37 H17        -2.4730   -7.6500   -1.4580 hx        1 MOL      0.043867
     38 H18        -4.6290   -7.5880   -1.9400 hn        1 MOL      0.255286
     39 H19        -4.8010   -6.1080   -2.4410 hn        1 MOL      0.255286
     40 H20        -3.8950   -7.1500   -3.3460 hn        1 MOL      0.255286
     41 N4          3.8910   -3.9610   -1.8510 n         1 MOL     -0.072610
     42 C13         5.2320   -3.6840   -2.4970 c3        1 MOL      0.120098
     43 C14         6.2960   -3.2340   -1.3990 c         1 MOL      0.346848
     44 O6          7.4970   -3.3340   -1.7250 o         1 MOL     -0.530133
     45 C15         5.0610   -2.6090   -3.5840 c3        1 MOL     -0.365702
     46 C16         4.4370   -1.3590   -3.0650 c         1 MOL      0.837185
     47 O7          5.0880   -0.6590   -2.2250 o         1 MOL     -0.791710
     48 O8          3.2240   -1.1110   -3.3240 o         1 MOL     -0.791710
     49 H21         3.5150   -3.2240   -1.2750 hn        1 MOL     -0.075085
     50 H22         5.5510   -4.5880   -2.9950 h1        1 MOL      0.100687
     51 H23         4.4370   -3.0870   -4.3270 hc        1 MOL      0.112668
     52 H24         6.0440   -2.3610   -3.9990 hc        1 MOL      0.112668
     53 N5          5.9060   -2.7520   -0.2100 n         1 MOL     -0.139570
     54 C17         6.8580   -2.5360    0.8690 c3        1 MOL     -0.204803
     55 C18         7.4230   -1.1200    1.0150 c         1 MOL      0.531716
     56 O9          7.9670   -0.7630    2.0200 o         1 MOL     -0.533319
     57 H25         4.9180   -2.6180   -0.0540 hn        1 MOL      0.154289
     58 H26         7.7200   -3.1420    0.5880 h1        1 MOL      0.121274
     59 H27         6.4870   -2.9060    1.8260 h1        1 MOL      0.121274
     60 N6          7.2100   -0.2390    0.0350 n         1 MOL     -0.337542
     61 C19         7.5980    1.2060    0.1280 c3        1 MOL      0.146238
     62 C20         6.4280    2.2110   -0.3260 c         1 MOL      0.358815
     63 O10         5.3650    1.8170   -0.8600 o         1 MOL     -0.381748
     64 C21         8.7290    1.4340   -0.9070 c3        1 MOL     -0.450547
     65 C22        10.0020    0.9720   -0.2940 c         1 MOL      0.740456
     66 N7         10.4920   -0.1530   -0.7490 n         1 MOL     -0.778993
     67 O11        10.6080    1.6860    0.4700 o         1 MOL     -0.572297
     68 H28         6.5650   -0.5690   -0.6570 hn        1 MOL      0.280474
     69 H29         7.9260    1.5010    1.1170 h1        1 MOL      0.083517
     70 H30         8.7850    2.5140   -1.0580 hc        1 MOL      0.117660
     71 H31         8.4150    1.0120   -1.8650 hc        1 MOL      0.117660
     72 H32         9.8460   -0.7830   -1.2060 hn        1 MOL      0.367690
     73 H33        11.4460   -0.3590   -0.5010 hn        1 MOL      0.367690
     74 N8          6.6610    3.5150   -0.1370 n         1 MOL     -0.329851
     75 C23         5.6400    4.5710   -0.4030 c3        1 MOL     -0.146099
     76 C24         4.5040    4.4510    0.5710 c         1 MOL      0.588972
     77 O12         4.6580    4.1040    1.7260 o         1 MOL     -0.485266
     78 H34         7.5980    3.7850    0.1140 hn        1 MOL      0.299891
     79 H35         5.2570    4.3340   -1.3930 h1        1 MOL      0.089342
     80 H36         6.1260    5.5380   -0.3220 h1        1 MOL      0.089342
     81 N9          3.2860    4.6930    0.0660 n         1 MOL     -0.528837
     82 C25         1.9840    4.4700    0.7530 c3        1 MOL      0.030193
     83 C26         1.6670    3.0460    1.1380 c         1 MOL      0.790047
     84 O13         2.3700    2.1690    0.7170 o         1 MOL     -0.622474
     85 C27         0.7990    5.0960   -0.1360 c3        1 MOL     -0.243503
     86 C28         1.0020    6.6240   -0.4160 ca        1 MOL      0.197363
     87 C29         1.5080    7.5150    0.5430 ca        1 MOL     -0.260315
     88 C30         0.7050    7.1380   -1.6670 ca        1 MOL     -0.260315
     89 C31         1.7840    8.8590    0.2150 ca        1 MOL     -0.147338
     90 C32         0.8800    8.4810   -1.9990 ca        1 MOL     -0.147338
     91 C33         1.5030    9.3110   -1.0700 ca        1 MOL      0.235793
     92 O14         1.5890   10.5850   -1.5130 oh        1 MOL     -0.480123
     93 H37         3.2370    4.9970   -0.8960 hn        1 MOL      0.276268
     94 H38         2.0300    5.0160    1.6950 h1        1 MOL      0.081632
     95 H39        -0.2180    4.8840    0.1960 hc        1 MOL      0.079284
     96 H40         0.8450    4.6820   -1.1440 hc        1 MOL      0.079284
     97 H41         1.7940    7.1020    1.4970 ha        1 MOL      0.147834
     98 H42         0.1900    6.5290   -2.3980 ha        1 MOL      0.147834
     99 H43         2.2700    9.4710    0.9520 ha        1 MOL      0.137278
    100 H44         0.5580    8.8290   -2.9650 ha        1 MOL      0.137278
    101 H45         1.7820   11.2750   -0.8710 ho        1 MOL      0.386697
    102 N10         0.6160    2.8640    1.9960 n         1 MOL     -0.705883
    103 C34         0.1200    1.5450    2.5490 c3        1 MOL      0.095776
    104 C35        -0.1640    0.4310    1.4570 c         1 MOL      0.382213
    105 O15         0.7330   -0.1270    0.9020 o         1 MOL     -0.227447
    106 C36         1.0090    0.9870    3.6870 c3        1 MOL      0.277263
    107 C37         0.4740   -0.2860    4.3200 c3        1 MOL      0.075298
    108 C38         1.3290    1.9410    4.8800 c3        1 MOL     -0.348607
    109 C39        -0.8250   -0.2920    5.1190 c3        1 MOL     -0.259482
    110 H46         0.2560    3.7120    2.4020 hn        1 MOL      0.339673
    111 H47        -0.8300    1.6980    3.0580 h1        1 MOL      0.038533
    112 H48         2.0190    0.7420    3.3400 hc        1 MOL     -0.009700
    113 H49         1.2520   -0.7200    4.9460 hc        1 MOL     -0.019513
    114 H50         0.4030   -1.0980    3.6020 hc        1 MOL     -0.019513
    115 H51         0.4210    2.1640    5.4220 hc        1 MOL      0.083999
    116 H52         1.9860    1.4540    5.6060 hc        1 MOL      0.083999
    117 H53         1.8980    2.7920    4.5050 hc        1 MOL      0.083999
    118 H54        -0.8390    0.6790    5.6170 hc        1 MOL      0.058940
    119 H55        -1.7150   -0.5680    4.5500 hc        1 MOL      0.058940
    120 H56        -0.7480   -1.0530    5.8980 hc        1 MOL      0.058940
    121 N11        -1.4230    0.0800    1.1530 n         1 MOL     -0.518009
    122 C40        -1.8320   -0.9390    0.2460 c3        1 MOL      0.118231
    123 C41        -3.2880   -0.7770   -0.3510 c         1 MOL      0.485559
    124 O16        -3.7270   -1.5800   -1.2210 o         1 MOL     -0.532883
    125 C42        -1.7050   -2.3270    0.8100 c3        1 MOL      0.462315
    126 O17        -2.0520   -2.3740    2.1760 oh        1 MOL     -0.653421
    127 H57        -2.1440    0.4200    1.7740 hn        1 MOL      0.296491
    128 H58        -1.2110   -0.8680   -0.6430 h1        1 MOL      0.034567
    129 H59        -0.7400   -2.7920    0.6180 h1        1 MOL     -0.086343
    130 H60        -2.2830   -3.0440    0.2220 h1        1 MOL     -0.086343
    131 H61        -1.4900   -3.0230    2.6090 ho        1 MOL      0.408460
    132 N12        -4.0170    0.2320    0.2010 n         1 MOL     -0.530027
    133 C43        -5.4190    0.2740   -0.1050 c3        1 MOL      0.105423
    134 C44        -5.8040    0.7960   -1.5100 c         1 MOL      0.638360
    135 O18        -5.2230    1.7550   -1.9640 o         1 MOL     -0.548039
    136 C45        -6.1640    0.9520    1.0920 c3        1 MOL     -0.141509
    137 H62        -3.5890    0.8500    0.8900 hn        1 MOL      0.294424
    138 H63        -5.7260   -0.7700   -0.0980 h1        1 MOL      0.094442
    139 H64        -5.7620    0.6650    2.0650 hc        1 MOL      0.063647
    140 H65        -6.0530    2.0370    1.0810 hc        1 MOL      0.063647
    141 H66        -7.2100    0.6640    0.9970 hc        1 MOL      0.063647
    142 N13        -6.9920    0.4950   -2.1440 n         1 MOL     -0.688671
    143 C46        -8.0990   -0.3700   -1.6440 c3        1 MOL      0.413489
    144 C47        -9.4680    0.0690   -2.2630 c         1 MOL      0.292750
    145 O19        -9.5410    0.2520   -3.4530 o         1 MOL     -0.513534
    146 C48        -7.8380   -1.8800   -1.9250 c3        1 MOL     -0.475844
    147 H67        -7.1350    0.7410   -3.1140 hn        1 MOL      0.350957
    148 H68        -8.0600   -0.2420   -0.5610 h1        1 MOL     -0.053341
    149 H69        -6.8720   -2.0990   -1.4540 hc        1 MOL      0.132625
    150 H70        -8.7200   -2.3260   -1.4650 hc        1 MOL      0.132625
    151 H71        -7.7700   -1.9650   -3.0100 hc        1 MOL      0.132625
    152 N14       -10.6110    0.0540   -1.6250 n         1 MOL     -0.251836
    153 C49       -10.7310   -0.2610   -0.2520 c3        1 MOL     -0.047268
    154 C50       -10.0300    0.6910    0.7110 c         1 MOL      0.565726
    155 O20        -9.6730    0.3070    1.8200 o         1 MOL     -0.549353
    156 C51       -12.2250   -0.3800    0.1940 c3        1 MOL     -0.139114
    157 C52       -12.9970    0.9810    0.4190 c3        1 MOL     -0.180301
    158 C53       -14.5670    0.9880    0.4200 c         1 MOL      0.663272
    159 O21       -15.1040    0.0650    1.0760 o         1 MOL     -0.648696
    160 O22       -15.2050    1.7780   -0.2740 o         1 MOL     -0.648696
    161 H72       -11.4530    0.3150   -2.1150 hn        1 MOL      0.298685
    162 H73       -10.4350   -1.2610    0.0490 h1        1 MOL      0.029802
    163 H74       -12.4080   -0.8960    1.1430 hc        1 MOL      0.087052
    164 H75       -12.6600   -1.0160   -0.5780 hc        1 MOL      0.087052
    165 H76       -12.6000    1.6350   -0.3540 hc        1 MOL      0.031582
    166 H77       -12.7150    1.3920    1.3920 hc        1 MOL      0.031582
    167 N15        -9.7710    1.9460    0.3010 n         1 MOL     -0.319569
    168 C54        -9.1980    2.9870    1.1320 c3        1 MOL     -0.230453
    169 H78        -9.9920    3.6390    1.4950 h1        1 MOL      0.107384
    170 H79        -8.6840    2.5340    1.9800 h1        1 MOL      0.107384
    171 H80        -8.4890    3.5720    0.5470 h1        1 MOL      0.107384
    172 H81       -10.1680    2.3260   -0.5510 hn        1 MOL      0.268162
    173 Ca1         3.1240    0.5260   -1.2180 Ca        1 MOL      1.743017
    174 O23         0.9470   -1.5590   -1.9010 oh        1 MOL     -0.891635
    175 H82         0.1980   -1.6280   -2.4910 ho        1 MOL      0.437724
    176 H83         1.6820   -1.8990   -2.4080 ho        1 MOL      0.437724
    177 O24         3.5180    2.4700   -2.9630 oh        1 MOL     -0.891635
    178 H84         3.0520    3.2690   -3.1850 ho        1 MOL      0.437724
    179 H85         4.4050    2.6210   -3.2990 ho        1 MOL      0.437724
    180 O25         0.8480    1.8440   -2.1850 oh        1 MOL     -0.891635
    181 H86         0.9150    2.2240   -3.0620 ho        1 MOL      0.437724
    182 H87        -0.0870    1.6670   -2.0610 ho        1 MOL      0.437724
@<TRIPOS>BOND
     1    1    2 1   
     2    1    4 1   
     3    1    5 1   
     4    1    6 1   
     5    2    3 2   
     6    2    7 1   
     7    7    8 1   
     8    7   15 1   
     9    8    9 1   
    10    8   11 1   
    11    8   16 1   
    12    9   10 2   
    13    9   19 1   
    14   11   12 1   
    15   11   17 1   
    16   11   18 1   
    17   12   13 1   
    18   12   14 1   
    19   19   20 1   
    20   19   28 1   
    21   20   21 1   
    22   20   23 1   
    23   20   29 1   
    24   21   22 2   
    25   21   41 1   
    26   23   24 1   
    27   23   30 1   
    28   23   31 1   
    29   24   25 1   
    30   24   32 1   
    31   24   33 1   
    32   25   26 1   
    33   25   34 1   
    34   25   35 1   
    35   26   27 1   
    36   26   36 1   
    37   26   37 1   
    38   27   38 1   
    39   27   39 1   
    40   27   40 1   
    41   41   42 1   
    42   41   49 1   
    43   42   43 1   
    44   42   45 1   
    45   42   50 1   
    46   43   44 2   
    47   43   53 1   
    48   45   46 1   
    49   45   51 1   
    50   45   52 1   
    51   46   47 1   
    52   46   48 1   
    53   53   54 1   
    54   53   57 1   
    55   54   55 1   
    56   54   58 1   
    57   54   59 1   
    58   55   56 2   
    59   55   60 1   
    60   60   61 1   
    61   60   68 1   
    62   61   62 1   
    63   61   64 1   
    64   61   69 1   
    65   62   63 2   
    66   62   74 1   
    67   64   65 1   
    68   64   70 1   
    69   64   71 1   
    70   65   66 1   
    71   65   67 2   
    72   66   72 1   
    73   66   73 1   
    74   74   75 1   
    75   74   78 1   
    76   75   76 1   
    77   75   79 1   
    78   75   80 1   
    79   76   77 2   
    80   76   81 1   
    81   81   82 1   
    82   81   93 1   
    83   82   83 1   
    84   82   85 1   
    85   82   94 1   
    86   83   84 2   
    87   83  102 1   
    88   85   86 1   
    89   85   95 1   
    90   85   96 1   
    91   86   87 ar  
    92   86   88 ar  
    93   87   89 ar  
    94   87   97 1   
    95   88   90 ar  
    96   88   98 1   
    97   89   91 ar  
    98   89   99 1   
    99   90   91 ar  
   100   90  100 1   
   101   91   92 1   
   102   92  101 1   
   103  102  103 1   
   104  102  110 1   
   105  103  104 1   
   106  103  106 1   
   107  103  111 1   
   108  104  105 2   
   109  104  121 1   
   110  106  107 1   
   111  106  108 1   
   112  106  112 1   
   113  107  109 1   
   114  107  113 1   
   115  107  114 1   
   116  108  115 1   
   117  108  116 1   
   118  108  117 1   
   119  109  118 1   
   120  109  119 1   
   121  109  120 1   
   122  121  122 1   
   123  121  127 1   
   124  122  123 1   
   125  122  125 1   
   126  122  128 1   
   127  123  124 2   
   128  123  132 1   
   129  125  126 1   
   130  125  129 1   
   131  125  130 1   
   132  126  131 1   
   133  132  133 1   
   134  132  137 1   
   135  133  134 1   
   136  133  136 1   
   137  133  138 1   
   138  134  135 2   
   139  134  142 1   
   140  136  139 1   
   141  136  140 1   
   142  136  141 1   
   143  142  143 1   
   144  142  147 1   
   145  143  144 1   
   146  143  146 1   
   147  143  148 1   
   148  144  145 2   
   149  144  152 1   
   150  146  149 1   
   151  146  150 1   
   152  146  151 1   
   153  152  153 1   
   154  152  161 1   
   155  153  154 1   
   156  153  156 1   
   157  153  162 1   
   158  154  155 2   
   159  154  167 1   
   160  156  157 1   
   161  156  163 1   
   162  156  164 1   
   163  157  158 1   
   164  157  165 1   
   165  157  166 1   
   166  158  159 1   
   167  158  160 1   
   168  167  168 1   
   169  167  172 1   
   170  168  169 1   
   171  168  170 1   
   172  168  171 1   
   173  174  175 1   
   174  174  176 1   
   175  177  178 1   
   176  177  179 1   
   177  180  181 1   
   178  180  182 1   
@<TRIPOS>SUBSTRUCTURE
     1 MOL         1 TEMP              0 ****  ****    0 ROOT
