@<TRIPOS>MOLECULE
MOL
  192   187     1     0     0
SMALL
resp


@<TRIPOS>ATOM
      1 C1         -8.5450    0.7530   -3.0360 c3        1 MOL     -0.452707
      2 C2         -8.0120    1.0300   -1.6120 c         1 MOL      0.643060
      3 O1         -7.3530    2.0410   -1.3670 o         1 MOL     -0.571743
      4 H1         -7.7120    0.7400   -3.7400 hc        1 MOL      0.110370
      5 H2         -9.0500   -0.2130   -3.0550 hc        1 MOL      0.110370
      6 H3         -9.2470    1.5360   -3.3210 hc        1 MOL      0.110370
      7 N1         -8.2090    0.0830   -0.6990 n         1 MOL     -0.277523
      8 C3         -7.5780    0.0150    0.6120 c3        1 MOL     -0.264470
      9 C4         -7.0140   -1.3430    1.0480 c         1 MOL      0.569380
     10 O2         -7.0370   -1.7560    2.2280 o         1 MOL     -0.446472
     11 C5         -8.5240    0.6980    1.7490 c3        1 MOL     -0.217244
     12 C6         -9.8710    0.0910    1.9530 c         1 MOL      0.738414
     13 O3        -10.7330    0.7410    2.6460 o         1 MOL     -0.649988
     14 O4        -10.1730   -0.9980    1.4190 o         1 MOL     -0.649988
     15 H4         -8.8420   -0.6450   -0.9970 hn        1 MOL      0.210331
     16 H5         -6.7070    0.6760    0.6540 h1        1 MOL      0.185182
     17 H6         -8.7250    1.6930    1.3580 hc        1 MOL      0.093248
     18 H7         -8.0440    0.7920    2.7200 hc        1 MOL      0.093248
     19 N2         -6.5260   -2.1450    0.0810 n         1 MOL     -0.397421
     20 C7         -5.9780   -3.4680    0.1970 c3        1 MOL      0.072954
     21 C8         -4.5580   -3.6520    0.7250 c         1 MOL      0.424120
     22 O5         -4.2350   -4.6020    1.4690 o         1 MOL     -0.537077
     23 C9         -6.1330   -4.2740   -1.0910 c3        1 MOL      0.080333
     24 C10        -7.6120   -4.3870   -1.5600 c3        1 MOL      0.054374
     25 C11        -8.0740   -5.5200   -2.5180 c3        1 MOL     -0.068500
     26 C12        -9.4900   -5.1860   -3.0680 c3        1 MOL      0.027070
     27 N3         -9.9460   -6.1480   -4.0980 n4        1 MOL     -0.058630
     28 H8         -6.6100   -1.7960   -0.8600 hn        1 MOL      0.159144
     29 H9         -6.6520   -3.9460    0.9130 h1        1 MOL      0.082561
     30 H10        -5.8010   -5.2990   -0.9110 hc        1 MOL     -0.021776
     31 H11        -5.5010   -3.9280   -1.9180 hc        1 MOL     -0.021776
     32 H12        -7.8370   -3.4470   -2.0650 hc        1 MOL      0.017124
     33 H13        -8.1970   -4.4310   -0.6380 hc        1 MOL      0.017124
     34 H14        -8.2300   -6.4620   -1.9890 hc        1 MOL      0.037049
     35 H15        -7.4000   -5.5630   -3.3830 hc        1 MOL      0.037049
     36 H16        -9.3640   -4.2380   -3.6070 hx        1 MOL      0.056900
     37 H17       -10.1760   -5.1520   -2.2220 hx        1 MOL      0.056900
     38 H18        -9.4560   -7.0110   -3.8760 hn        1 MOL      0.197302
     39 H19       -10.9430   -6.2780   -4.0740 hn        1 MOL      0.197302
     40 H20        -9.6270   -5.9360   -5.0360 hn        1 MOL      0.197302
     41 N4         -3.6000   -2.7640    0.4980 n         1 MOL     -0.313170
     42 C13        -3.5000   -1.7660   -0.5630 c3        1 MOL      0.080388
     43 C14        -3.6660   -0.3780    0.1110 c         1 MOL      0.006071
     44 O6         -3.7200   -0.2220    1.3400 o         1 MOL     -0.321469
     45 C15        -2.2660   -1.8730   -1.4740 c3        1 MOL     -0.190213
     46 C16        -0.9470   -2.0080   -0.8060 c         1 MOL      0.731417
     47 O7         -0.8380   -1.2320    0.2310 o         1 MOL     -0.660972
     48 O8         -0.0740   -2.8800   -1.0990 o         1 MOL     -0.660972
     49 H21        -2.8010   -2.8750    1.1060 hn        1 MOL      0.345915
     50 H22        -4.3770   -1.8400   -1.2110 h1        1 MOL      0.074532
     51 H23        -2.2340   -0.9180   -1.9930 hc        1 MOL      0.025844
     52 H24        -2.5160   -2.7720   -2.0330 hc        1 MOL      0.025844
     53 N5         -3.8310    0.6570   -0.6570 n         1 MOL      0.065641
     54 C17        -3.9310    2.0400   -0.3930 c3        1 MOL     -0.401445
     55 C18        -2.8320    2.6180    0.5450 c         1 MOL      0.773187
     56 O9         -1.8340    1.9550    0.7080 o         1 MOL     -0.704388
     57 H25        -4.0210    0.4120   -1.6190 hn        1 MOL      0.196881
     58 H26        -4.8590    2.1400    0.1720 h1        1 MOL      0.135410
     59 H27        -3.9950    2.6300   -1.3120 h1        1 MOL      0.135410
     60 N6         -3.1080    3.7700    1.1950 n         1 MOL     -0.473379
     61 C19        -2.1030    4.6980    1.7370 c3        1 MOL      0.253122
     62 C20        -2.6120    6.1700    1.4670 c         1 MOL      0.400799
     63 O10        -3.7760    6.3920    1.2890 o         1 MOL     -0.480977
     64 C21        -1.9460    4.3640    3.2470 c3        1 MOL     -0.368387
     65 C22        -1.7320    2.9380    3.5880 c         1 MOL      0.714314
     66 O11        -2.6010    2.2320    4.0820 o         1 MOL     -0.675351
     67 O12        -0.6240    2.4490    3.3210 o         1 MOL     -0.675351
     68 H28        -4.0280    4.1790    1.1030 hn        1 MOL      0.286120
     69 H29        -1.1560    4.4900    1.2370 h1        1 MOL      0.004106
     70 H30        -2.8590    4.7270    3.7140 hc        1 MOL      0.092497
     71 H31        -1.1120    4.9490    3.6430 hc        1 MOL      0.092497
     72 N7         -1.6720    7.1310    1.5100 n         1 MOL     -0.407389
     73 C23        -0.1870    6.9680    1.6460 c3        1 MOL     -0.049517
     74 C24         0.4640    6.3070    0.4280 c         1 MOL      0.598317
     75 O13        -0.1320    6.2220   -0.6100 o         1 MOL     -0.514669
     76 H32        -2.0880    8.0490    1.4340 hn        1 MOL      0.304297
     77 H33         0.0240    6.2920    2.4900 h1        1 MOL      0.061955
     78 H34         0.2960    7.9170    1.8570 h1        1 MOL      0.061955
     79 N8          1.6240    5.7570    0.6570 n         1 MOL     -0.493778
     80 C25         2.4620    5.0490   -0.2970 c3        1 MOL     -0.122796
     81 C26         1.7680    3.8400   -0.8250 c         1 MOL      0.811452
     82 O14         1.0900    3.1530   -0.0350 o         1 MOL     -0.607368
     83 C27         3.8080    4.7440    0.3560 c3        1 MOL      0.207498
     84 C28         4.8530    4.1930   -0.5690 c3        1 MOL     -0.422541
     85 O15         3.6750    3.9010    1.4700 oh        1 MOL     -0.527143
     86 H35         2.0630    6.0320    1.5290 hn        1 MOL      0.293468
     87 H36         2.5890    5.7650   -1.1030 h1        1 MOL      0.094880
     88 H37         4.1900    5.6230    0.8630 h1        1 MOL      0.058505
     89 H38         4.5200    4.0460    1.8900 ho        1 MOL      0.382257
     90 H39         5.1880    4.9530   -1.2770 hc        1 MOL      0.117348
     91 H40         5.6890    3.8520    0.0450 hc        1 MOL      0.117348
     92 H41         4.5240    3.2770   -1.0420 hc        1 MOL      0.117348
     93 N9          1.9070    3.4950   -2.1060 n         1 MOL     -0.461154
     94 C29         1.3350    2.3410   -2.8130 c3        1 MOL     -0.055605
     95 C30         1.8500    0.9650   -2.2680 c         1 MOL      0.324843
     96 O16         1.4160    0.5230   -1.1860 o         1 MOL     -0.475876
     97 C31        -0.2090    2.3570   -2.9370 c3        1 MOL      0.124567
     98 C32        -0.7170    3.7440   -3.4870 c3        1 MOL     -0.158607
     99 C33        -0.7840    1.2490   -3.7670 c3        1 MOL     -0.257440
    100 C34        -0.3710    4.1160   -4.9270 c3        1 MOL     -0.048578
    101 H42         2.6040    4.0300   -2.6070 hn        1 MOL      0.254143
    102 H43         1.6770    2.4210   -3.8460 h1        1 MOL      0.083962
    103 H44        -0.5900    2.4160   -1.9140 hc        1 MOL      0.038953
    104 H45        -0.3410    4.5330   -2.8300 hc        1 MOL      0.075232
    105 H46        -1.8050    3.7870   -3.4730 hc        1 MOL      0.075232
    106 H47        -1.8780    1.2470   -3.7790 hc        1 MOL      0.069337
    107 H48        -0.4180    1.4500   -4.7780 hc        1 MOL      0.069337
    108 H49        -0.4600    0.2370   -3.5320 hc        1 MOL      0.069337
    109 H50         0.6220    3.7950   -5.2490 hc        1 MOL      0.011074
    110 H51        -1.0400    3.5910   -5.6070 hc        1 MOL      0.011074
    111 H52        -0.2920    5.1890   -5.1040 hc        1 MOL      0.011074
    112 N10         2.5400    0.1520   -3.0890 n         1 MOL      0.016594
    113 C35         2.9660   -1.2670   -2.8830 c3        1 MOL     -0.059450
    114 C36         4.4280   -1.5540   -3.1490 c         1 MOL      0.490128
    115 O17         4.8580   -2.6480   -3.3180 o         1 MOL     -0.551382
    116 C37         2.0850   -2.1310   -3.9130 c3        1 MOL      0.400401
    117 C38         2.1220   -1.6640   -5.3520 c3        1 MOL     -0.229466
    118 O18         0.7350   -2.0990   -3.5290 oh        1 MOL     -0.617911
    119 H53         2.8980    0.5880   -3.9360 hn        1 MOL      0.121411
    120 H54         2.6140   -1.5590   -1.8920 h1        1 MOL      0.041055
    121 H55         2.3780   -3.1770   -3.8570 h1        1 MOL     -0.004389
    122 H56         0.6660   -2.3220   -2.5930 ho        1 MOL      0.347182
    123 H57         1.6410   -0.6880   -5.4160 hc        1 MOL      0.050179
    124 H58         3.1210   -1.6160   -5.7900 hc        1 MOL      0.050179
    125 H59         1.6070   -2.3510   -6.0260 hc        1 MOL      0.050179
    126 N11         5.2710   -0.5220   -3.1700 n         1 MOL     -0.337643
    127 C39         6.7280   -0.5660   -3.0340 c3        1 MOL      0.145789
    128 C40         7.2570   -1.0140   -1.6710 c         1 MOL      0.430580
    129 O19         7.9430   -0.2950   -0.9180 o         1 MOL     -0.527167
    130 C41         7.3100    0.8070   -3.4550 c3        1 MOL      0.547595
    131 C42         8.8240    0.7040   -3.7590 c3        1 MOL     -0.506700
    132 O20         6.7100    1.4320   -4.5730 oh        1 MOL     -0.662631
    133 H60         4.7620    0.3460   -3.0750 hn        1 MOL      0.108904
    134 H61         7.1240   -1.2910   -3.7490 h1        1 MOL      0.055148
    135 H62         7.1890    1.5080   -2.6350 h1        1 MOL     -0.064272
    136 H63         6.6730    2.3670   -4.3660 ho        1 MOL      0.404355
    137 H64         9.2890    1.6620   -3.5530 hc        1 MOL      0.122381
    138 H65         9.3570   -0.0840   -3.2290 hc        1 MOL      0.122381
    139 H66         8.9170    0.5210   -4.8350 hc        1 MOL      0.122381
    140 N12         6.8390   -2.1910   -1.1600 n         1 MOL     -0.619586
    141 C43         6.8320   -2.6250    0.2320 c3        1 MOL      0.376140
    142 C44         5.6010   -2.0080    0.9770 c         1 MOL      0.399819
    143 O21         5.1620   -0.8490    0.6810 o         1 MOL     -0.502820
    144 C45         8.1450   -2.4180    1.0070 c3        1 MOL     -0.429148
    145 C46         9.4130   -3.0870    0.4190 c3        1 MOL     -0.049509
    146 C47        10.6600   -2.6490    1.1650 c3        1 MOL     -0.077379
    147 C48        10.4990   -2.9620    2.6410 c3        1 MOL      0.174152
    148 N13        11.7500   -2.6070    3.3320 n4        1 MOL     -0.231383
    149 H67         6.1860   -2.5900   -1.8200 hn        1 MOL      0.325864
    150 H68         6.5840   -3.6870    0.2310 h1        1 MOL      0.022184
    151 H69         7.9420   -2.6460    2.0540 hc        1 MOL      0.167297
    152 H70         8.3750   -1.3630    1.0660 hc        1 MOL      0.167297
    153 H71         9.4340   -2.7620   -0.6200 hc        1 MOL      0.072395
    154 H72         9.3630   -4.1720    0.4140 hc        1 MOL      0.072395
    155 H73        10.8320   -1.5790    1.1150 hc        1 MOL      0.051352
    156 H74        11.5550   -3.0980    0.7220 hc        1 MOL      0.051352
    157 H75        10.3380   -4.0320    2.7840 hx        1 MOL      0.006668
    158 H76         9.5930   -2.5060    3.0490 hx        1 MOL      0.006668
    159 H77        12.0350   -3.3760    3.9220 hn        1 MOL      0.209996
    160 H78        12.4700   -2.4710    2.6260 hn        1 MOL      0.209996
    161 H79        11.5820   -1.7640    3.8600 hn        1 MOL      0.209996
    162 N14         4.9410   -2.7800    1.8840 n         1 MOL     -0.510304
    163 C49         3.6340   -2.4890    2.4610 c3        1 MOL      0.388605
    164 C50         2.5150   -2.3980    1.4710 c         1 MOL      0.441779
    165 O22         1.6440   -1.5450    1.6250 o         1 MOL     -0.746817
    166 C51         3.2200   -3.5410    3.5450 c3        1 MOL     -0.588766
    167 C52         2.0410   -2.9840    4.3720 c3        1 MOL     -0.072460
    168 C53         1.6790   -3.6960    5.6970 c         1 MOL      0.691706
    169 O23         0.5590   -3.4750    6.1740 o         1 MOL     -0.626043
    170 O24         2.4370   -4.5770    6.2480 o         1 MOL     -0.626043
    171 H80         5.3390   -3.6680    2.1410 hn        1 MOL      0.260983
    172 H81         3.7270   -1.4640    2.8130 h1        1 MOL      0.035223
    173 H82         4.0510   -3.7320    4.2210 hc        1 MOL      0.156895
    174 H83         2.8940   -4.4520    3.0300 hc        1 MOL      0.156895
    175 H84         1.1320   -2.9850    3.7770 hc        1 MOL      0.071869
    176 H85         2.3240   -1.9610    4.6560 hc        1 MOL      0.071869
    177 N15         2.2070   -3.2340    0.4920 n         1 MOL     -0.112846
    178 C54         2.7030   -4.5740    0.1800 c3        1 MOL     -0.120586
    179 H86         3.7490   -4.5130   -0.1200 h1        1 MOL      0.056514
    180 H87         2.6150   -5.2100    1.0610 h1        1 MOL      0.056514
    181 H88         2.1170   -4.9980   -0.6350 h1        1 MOL      0.056514
    182 H89         1.2800   -2.9940    0.1590 hn        1 MOL      0.305231
    183 Ca1         0.4620    0.7110    1.4490 Ca        1 MOL      1.873793
    184 O25        -1.6050   -0.1010    2.8980 oh        1 MOL     -0.937177
    185 H90        -1.7540    0.4100    3.6970 ho        1 MOL      0.435321
    186 H91        -2.4340   -0.0330    2.4110 ho        1 MOL      0.435321
    187 O26         3.2860    1.0850    0.9000 oh        1 MOL     -0.937177
    188 H92         4.0480    0.5720    0.6190 ho        1 MOL      0.435321
    189 H93         3.6640    1.8620    1.2980 ho        1 MOL      0.435321
    190 O27         2.0520    1.5000    3.6080 oh        1 MOL     -0.937177
    191 H94         1.5360    1.3530    4.4060 ho        1 MOL      0.435321
    192 H95         2.9200    1.7430    3.9210 ho        1 MOL      0.435321
@<TRIPOS>BOND
     1    1    2 1   
     2    1    4 1   
     3    1    5 1   
     4    1    6 1   
     5    2    3 2   
     6    2    7 1   
     7    7    8 1   
     8    7   15 1   
     9    8    9 1   
    10    8   11 1   
    11    8   16 1   
    12    9   10 2   
    13    9   19 1   
    14   11   12 1   
    15   11   17 1   
    16   11   18 1   
    17   12   13 1   
    18   12   14 1   
    19   19   20 1   
    20   19   28 1   
    21   20   21 1   
    22   20   23 1   
    23   20   29 1   
    24   21   22 2   
    25   21   41 1   
    26   23   24 1   
    27   23   30 1   
    28   23   31 1   
    29   24   25 1   
    30   24   32 1   
    31   24   33 1   
    32   25   26 1   
    33   25   34 1   
    34   25   35 1   
    35   26   27 1   
    36   26   36 1   
    37   26   37 1   
    38   27   38 1   
    39   27   39 1   
    40   27   40 1   
    41   41   42 1   
    42   41   49 1   
    43   42   43 1   
    44   42   45 1   
    45   42   50 1   
    46   43   44 2   
    47   43   53 1   
    48   45   46 1   
    49   45   51 1   
    50   45   52 1   
    51   46   47 1   
    52   46   48 1   
    53   53   54 1   
    54   53   57 1   
    55   54   55 1   
    56   54   58 1   
    57   54   59 1   
    58   55   56 2   
    59   55   60 1   
    60   60   61 1   
    61   60   68 1   
    62   61   62 1   
    63   61   64 1   
    64   61   69 1   
    65   62   63 2   
    66   62   72 1   
    67   64   65 1   
    68   64   70 1   
    69   64   71 1   
    70   65   66 1   
    71   65   67 1   
    72   72   73 1   
    73   72   76 1   
    74   73   74 1   
    75   73   77 1   
    76   73   78 1   
    77   74   75 2   
    78   74   79 1   
    79   79   80 1   
    80   79   86 1   
    81   80   81 1   
    82   80   83 1   
    83   80   87 1   
    84   81   82 2   
    85   81   93 1   
    86   83   84 1   
    87   83   85 1   
    88   83   88 1   
    89   84   90 1   
    90   84   91 1   
    91   84   92 1   
    92   85   89 1   
    93   93   94 1   
    94   93  101 1   
    95   94   95 1   
    96   94   97 1   
    97   94  102 1   
    98   95   96 2   
    99   95  112 1   
   100   97   98 1   
   101   97   99 1   
   102   97  103 1   
   103   98  100 1   
   104   98  104 1   
   105   98  105 1   
   106   99  106 1   
   107   99  107 1   
   108   99  108 1   
   109  100  109 1   
   110  100  110 1   
   111  100  111 1   
   112  112  113 1   
   113  112  119 1   
   114  113  114 1   
   115  113  116 1   
   116  113  120 1   
   117  114  115 2   
   118  114  126 1   
   119  116  117 1   
   120  116  118 1   
   121  116  121 1   
   122  117  123 1   
   123  117  124 1   
   124  117  125 1   
   125  118  122 1   
   126  126  127 1   
   127  126  133 1   
   128  127  128 1   
   129  127  130 1   
   130  127  134 1   
   131  128  129 2   
   132  128  140 1   
   133  130  131 1   
   134  130  132 1   
   135  130  135 1   
   136  131  137 1   
   137  131  138 1   
   138  131  139 1   
   139  132  136 1   
   140  140  141 1   
   141  140  149 1   
   142  141  142 1   
   143  141  144 1   
   144  141  150 1   
   145  142  143 2   
   146  142  162 1   
   147  144  145 1   
   148  144  151 1   
   149  144  152 1   
   150  145  146 1   
   151  145  153 1   
   152  145  154 1   
   153  146  147 1   
   154  146  155 1   
   155  146  156 1   
   156  147  148 1   
   157  147  157 1   
   158  147  158 1   
   159  148  159 1   
   160  148  160 1   
   161  148  161 1   
   162  162  163 1   
   163  162  171 1   
   164  163  164 1   
   165  163  166 1   
   166  163  172 1   
   167  164  165 2   
   168  164  177 1   
   169  166  167 1   
   170  166  173 1   
   171  166  174 1   
   172  167  168 1   
   173  167  175 1   
   174  167  176 1   
   175  168  169 1   
   176  168  170 1   
   177  177  178 1   
   178  177  182 1   
   179  178  179 1   
   180  178  180 1   
   181  178  181 1   
   182  184  185 1   
   183  184  186 1   
   184  187  188 1   
   185  187  189 1   
   186  190  191 1   
   187  190  192 1   
@<TRIPOS>SUBSTRUCTURE
     1 MOL         1 TEMP              0 ****  ****    0 ROOT
