@<TRIPOS>MOLECULE
MOL
  195   189     1     0     0
SMALL
resp


@<TRIPOS>ATOM
      1 C1         -1.8700    2.7070   -0.9710 c3        1 MOL      0.178287
      2 C2         -0.6680    3.3950   -0.2630 c         1 MOL      0.507613
      3 O1          0.4530    2.9060   -0.1920 o         1 MOL     -0.474409
      4 H1         -2.1110    1.7780   -0.4550 hc        1 MOL     -0.096163
      5 H2         -2.7340    3.3700   -0.9460 hc        1 MOL     -0.096163
      6 H3         -1.6060    2.4890   -2.0060 hc        1 MOL     -0.096163
      7 N1         -0.9890    4.5490    0.2940 n         1 MOL     -0.511423
      8 C3         -0.0150    5.2920    1.1140 c3        1 MOL      0.149590
      9 C4          1.4390    5.4460    0.5770 c         1 MOL      0.526165
     10 O2          2.4500    5.2820    1.2880 o         1 MOL     -0.436054
     11 C5         -0.0710    4.6820    2.5370 c3        1 MOL     -0.164652
     12 C6          0.5410    5.5660    3.6070 c         1 MOL      0.618871
     13 O3          0.6100    6.7850    3.3430 o         1 MOL     -0.598296
     14 O4          0.9760    5.1060    4.6690 o         1 MOL     -0.598296
     15 H4         -1.9320    4.8490    0.4740 hn        1 MOL      0.301452
     16 H5         -0.3950    6.3000    1.2310 h1        1 MOL      0.000368
     17 H6          0.5140    3.7620    2.5540 hc        1 MOL      0.059025
     18 H7         -1.0740    4.4260    2.8700 hc        1 MOL      0.059025
     19 N2          1.6210    5.7890   -0.7020 n         1 MOL     -0.444103
     20 C7          2.8750    5.7300   -1.4280 c3        1 MOL     -0.119183
     21 C8          3.9910    6.6110   -0.7660 c         1 MOL      0.516746
     22 O5          3.7590    7.7480   -0.3450 o         1 MOL     -0.541645
     23 C9          2.8050    5.9920   -2.9630 c3        1 MOL      0.341566
     24 C10         2.0200    7.2230   -3.3860 c3        1 MOL      0.019123
     25 C11         2.1840    4.7530   -3.6070 c3        1 MOL     -0.294621
     26 C12         2.4400    7.8620   -4.6910 c3        1 MOL     -0.100384
     27 H8          0.7340    5.8620   -1.1710 hn        1 MOL      0.238042
     28 H9          3.2410    4.7010   -1.3660 h1        1 MOL      0.112839
     29 H10         3.8050    6.1730   -3.3390 hc        1 MOL     -0.021050
     30 H11         2.1250    7.9690   -2.6060 hc        1 MOL     -0.018713
     31 H12         0.9630    6.9500   -3.4570 hc        1 MOL     -0.018713
     32 H13         1.1290    4.6300   -3.3410 hc        1 MOL      0.075870
     33 H14         2.2180    4.8480   -4.6940 hc        1 MOL      0.075870
     34 H15         2.7050    3.8070   -3.4250 hc        1 MOL      0.075870
     35 H16         2.4460    7.1340   -5.4940 hc        1 MOL      0.006455
     36 H17         1.8410    8.7210   -5.0110 hc        1 MOL      0.006455
     37 H18         3.4320    8.3070   -4.7250 hc        1 MOL      0.006455
     38 N3          5.2530    6.2040   -0.6850 n         1 MOL     -0.581097
     39 C13         5.8510    4.8980   -1.1060 c3        1 MOL      0.417815
     40 C14         6.3020    4.0580    0.1210 c         1 MOL      0.398369
     41 O6          6.9830    3.0700   -0.0010 o         1 MOL     -0.438968
     42 C15         7.0320    5.1290   -2.1230 c3        1 MOL     -0.322147
     43 C16         7.4450    3.8630   -2.8410 c         1 MOL      0.756638
     44 O7          8.4840    3.9930   -3.5680 o         1 MOL     -0.635197
     45 O8          6.8300    2.8190   -2.8050 o         1 MOL     -0.635197
     46 H19         5.9230    6.9200   -0.4720 hn        1 MOL      0.286926
     47 H20         5.0280    4.4350   -1.6550 h1        1 MOL     -0.032076
     48 H21         7.8870    5.6060   -1.6510 hc        1 MOL      0.055736
     49 H22         6.6690    5.7660   -2.9330 hc        1 MOL      0.055736
     50 N4          5.9440    4.4710    1.3350 n         1 MOL     -0.439756
     51 C17         6.5780    4.0950    2.6500 c3        1 MOL      0.089600
     52 C18         6.8760    2.5400    2.8260 c         1 MOL      0.349857
     53 O9          8.0400    2.1550    3.1640 o         1 MOL     -0.516498
     54 H23         5.2060    5.1550    1.3610 hn        1 MOL      0.282868
     55 H24         5.9390    4.3450    3.4940 h1        1 MOL      0.046120
     56 H25         7.4820    4.7060    2.7600 h1        1 MOL      0.046120
     57 N5          5.7660    1.7310    2.6980 n         1 MOL     -0.165758
     58 C19         5.7230    0.3860    3.2580 c3        1 MOL     -0.118714
     59 C20         6.6620   -0.6210    2.5060 c         1 MOL      0.452030
     60 O10         7.2450   -1.5460    3.1030 o         1 MOL     -0.559522
     61 C21         4.2610   -0.1380    3.2670 c3        1 MOL     -0.133363
     62 C22         3.6640   -0.2760    1.8610 c         1 MOL      0.616316
     63 O11         3.0360    0.6730    1.3420 o         1 MOL     -0.586834
     64 O12         3.8460   -1.3820    1.2190 o         1 MOL     -0.586834
     65 H26         4.8730    2.1650    2.5060 hn        1 MOL      0.190986
     66 H27         6.1010    0.5220    4.2740 h1        1 MOL      0.088939
     67 H28         3.6240    0.5560    3.8100 hc        1 MOL      0.053378
     68 H29         4.2200   -1.0900    3.8050 hc        1 MOL      0.053378
     69 N6          6.6900   -0.4360    1.1830 n         1 MOL     -0.011983
     70 C23         7.4840   -1.3620    0.2670 c3        1 MOL     -0.613989
     71 C24         7.0620   -2.8240    0.2330 c         1 MOL      0.576322
     72 O13         7.8540   -3.6990   -0.2500 o         1 MOL     -0.573259
     73 H30         6.2430    0.3920    0.8180 hn        1 MOL      0.195128
     74 H31         8.5040   -1.1830    0.5930 h1        1 MOL      0.227678
     75 H32         7.2560   -0.9900   -0.7290 h1        1 MOL      0.227678
     76 N7          5.9080   -3.1490    0.8260 n         1 MOL      0.046927
     77 C25         5.3780   -4.5480    0.9900 c3        1 MOL      0.010275
     78 C26         5.1400   -5.2930   -0.3870 c         1 MOL      0.444529
     79 O14         5.2580   -6.4890   -0.5140 o         1 MOL     -0.512260
     80 C27         6.2170   -5.3110    2.0170 c3        1 MOL      0.150244
     81 C28         6.2730   -4.4910    3.3590 c3        1 MOL     -0.243598
     82 C29         6.1460   -5.4590    4.5230 c         1 MOL      0.634125
     83 N8          6.1710   -5.0500    5.7540 n         1 MOL     -0.736336
     84 O15         6.0260   -6.6740    4.4030 o         1 MOL     -0.581175
     85 H33         5.3230   -2.4220    1.2120 hn        1 MOL     -0.062827
     86 H34         4.4100   -4.4460    1.4810 h1        1 MOL      0.053561
     87 H35         7.2140   -5.4160    1.5880 hc        1 MOL     -0.025524
     88 H36         5.8340   -6.3280    2.1150 hc        1 MOL     -0.025524
     89 H37         5.4330   -3.7900    3.3710 hc        1 MOL      0.091039
     90 H38         7.2450   -4.0040    3.4160 hc        1 MOL      0.091039
     91 H39         6.4420   -4.1020    5.9690 hn        1 MOL      0.325791
     92 H40         6.3110   -5.8340    6.3680 hn        1 MOL      0.325791
     93 N9          4.9120   -4.4850   -1.4340 n         1 MOL     -0.395435
     94 C30         4.7140   -5.0350   -2.8300 c3        1 MOL      0.048780
     95 C31         3.3410   -4.5890   -3.3950 c         1 MOL      0.462088
     96 O16         2.7170   -5.4010   -4.1720 o         1 MOL     -0.591390
     97 C32         5.7240   -4.5570   -3.8440 c3        1 MOL      0.156930
     98 C33         5.7040   -3.0120   -4.0070 c3        1 MOL     -0.201761
     99 C34         7.1060   -5.0700   -3.4120 c3        1 MOL     -0.201761
    100 H41         4.7630   -3.5150   -1.2280 hn        1 MOL      0.257253
    101 H42         4.6920   -6.1230   -2.8690 h1        1 MOL      0.090386
    102 H43         5.4900   -4.9940   -4.8160 hc        1 MOL     -0.014089
    103 H44         6.4300   -2.6840   -4.7410 hc        1 MOL      0.046537
    104 H45         4.7690   -2.6600   -4.4360 hc        1 MOL      0.046537
    105 H46         5.7820   -2.4920   -3.0590 hc        1 MOL      0.046537
    106 H47         7.6420   -4.3810   -2.7550 hc        1 MOL      0.046537
    107 H48         6.9580   -6.0370   -2.9300 hc        1 MOL      0.046537
    108 H49         7.6470   -5.3330   -4.3200 hc        1 MOL      0.046537
    109 N10         2.6790   -3.5870   -2.8110 n         1 MOL     -0.266946
    110 C35         1.2260   -3.2930   -3.0960 c3        1 MOL      0.151973
    111 C36         0.4090   -2.9160   -1.8040 c         1 MOL      0.453812
    112 O17         1.0610   -2.6840   -0.7820 o         1 MOL     -0.498911
    113 C37         1.2740   -2.1760   -4.1670 c3        1 MOL     -0.266144
    114 C38         1.1960   -0.7580   -3.5460 c         1 MOL      0.689707
    115 N11         1.9040   -0.4740   -2.5190 n         1 MOL     -0.696525
    116 O18         0.5630    0.0960   -4.1190 o         1 MOL     -0.610073
    117 H50         3.1200   -3.1360   -2.0290 hn        1 MOL      0.128866
    118 H51         0.7780   -4.2250   -3.4590 h1        1 MOL      0.069879
    119 H52         0.3380   -2.2880   -4.7060 hc        1 MOL      0.060156
    120 H53         2.1150   -2.3070   -4.8550 hc        1 MOL      0.060156
    121 H54         2.4750   -1.2080   -2.1240 hn        1 MOL      0.362483
    122 H55         1.9420    0.4960   -2.2640 hn        1 MOL      0.362483
    123 N12        -0.9380   -2.8270   -1.7930 n         1 MOL     -0.480037
    124 C39        -1.8100   -2.7120   -0.5260 c3        1 MOL      0.098122
    125 C40        -3.2280   -3.1340   -0.9510 c         1 MOL      0.604831
    126 O19        -3.7870   -2.6030   -1.9360 o         1 MOL     -0.543945
    127 C41        -1.7140   -1.3270    0.0510 c3        1 MOL     -0.299572
    128 C42        -2.3000   -1.1360    1.4150 ca        1 MOL      0.032822
    129 C43        -3.5490   -0.4330    1.5280 ca        1 MOL     -0.072929
    130 C44        -1.7450   -1.7680    2.5350 ca        1 MOL     -0.072929
    131 C45        -4.1480   -0.2550    2.8310 ca        1 MOL     -0.335456
    132 C46        -2.4020   -1.6630    3.8120 ca        1 MOL     -0.335456
    133 C47        -3.6040   -0.9230    3.9690 ca        1 MOL      0.350469
    134 O20        -4.1400   -0.7510    5.1540 oh        1 MOL     -0.478417
    135 H56        -1.4240   -2.8880   -2.6800 hn        1 MOL      0.289168
    136 H57        -1.5160   -3.3640    0.2910 h1        1 MOL      0.084497
    137 H58        -2.3340   -0.7100   -0.6020 hc        1 MOL      0.168278
    138 H59        -0.6840   -1.0240    0.2220 hc        1 MOL      0.168278
    139 H60        -4.0590   -0.0360    0.6700 ha        1 MOL      0.145695
    140 H61        -0.9880   -2.5160    2.3970 ha        1 MOL      0.145695
    141 H62        -5.0820    0.2740    2.9310 ha        1 MOL      0.169244
    142 H63        -1.9700   -2.1710    4.6610 ha        1 MOL      0.169244
    143 H64        -4.8960   -0.1560    5.0850 ho        1 MOL      0.368663
    144 N13        -3.7690   -4.0030   -0.1730 n         1 MOL     -0.744647
    145 C48        -5.0650   -4.6640   -0.3530 c3        1 MOL      0.180995
    146 C49        -6.0400   -4.1240    0.7080 c         1 MOL      0.862289
    147 O21        -6.2050   -4.7710    1.6940 o         1 MOL     -0.532162
    148 C50        -4.7480   -6.2310   -0.2370 c3        1 MOL      0.479054
    149 C51        -5.8750   -7.1750   -0.7120 c3        1 MOL     -0.324847
    150 C52        -7.0870   -7.2770    0.2590 c         1 MOL      0.713577
    151 O22        -6.9930   -7.9530    1.3360 o         1 MOL     -0.728196
    152 O23        -8.1770   -6.7190   -0.0270 o         1 MOL     -0.728196
    153 H65        -3.2250   -4.2160    0.6440 hn        1 MOL      0.320016
    154 H66        -5.4230   -4.3180   -1.3160 h1        1 MOL      0.076603
    155 H67        -4.4660   -6.5210    0.7750 hc        1 MOL     -0.130049
    156 H68        -3.9040   -6.4680   -0.8900 hc        1 MOL     -0.130049
    157 H69        -5.4560   -8.1690   -0.8370 hc        1 MOL      0.011647
    158 H70        -6.2070   -6.9240   -1.7180 hc        1 MOL      0.011647
    159 N14        -6.7050   -2.9220    0.5600 n         1 MOL     -1.069283
    160 C53        -6.6610   -1.9950   -0.5900 c3        1 MOL      0.680290
    161 C54        -7.2270   -2.7100   -1.8100 c         1 MOL      0.105229
    162 O24        -8.2360   -3.4350   -1.8090 o         1 MOL     -0.440459
    163 C55        -7.6280   -0.7500   -0.3790 c3        1 MOL      0.405895
    164 C56        -7.1530    0.3340    0.5830 c3        1 MOL     -1.606706
    165 C57        -8.3190    1.2650    0.7900 c         1 MOL      1.286690
    166 O25        -8.3270    2.4620    0.3520 o         1 MOL     -0.683103
    167 O26        -9.4220    0.8440    1.2710 o         1 MOL     -0.683103
    168 H71        -7.3360   -2.6440    1.2940 hn        1 MOL      0.420825
    169 H72        -5.6160   -1.7920   -0.7930 h1        1 MOL     -0.014096
    170 H73        -8.5190   -1.1910    0.0510 hc        1 MOL     -0.041729
    171 H74        -7.8080   -0.3610   -1.3820 hc        1 MOL     -0.041729
    172 H75        -6.2830    0.8620    0.1750 hc        1 MOL      0.318059
    173 H76        -6.8110   -0.0290    1.5540 hc        1 MOL      0.318059
    174 N15        -6.4650   -2.5600   -2.9600 n         1 MOL     -0.091825
    175 C58        -6.6280   -3.2590   -4.2710 c3        1 MOL     -0.691832
    176 H77        -6.8010   -4.3200   -4.0970 h1        1 MOL      0.221219
    177 H78        -7.4780   -2.8360   -4.8060 h1        1 MOL      0.221219
    178 H79        -5.7240   -3.1320   -4.8670 h1        1 MOL      0.221219
    179 H80        -5.6440   -1.9890   -2.8270 hn        1 MOL      0.141531
    180 Ca1       -10.3980    3.9550   -0.1500 Ca        1 MOL      1.468527
    181 O27       -12.0120    5.2000   -1.9940 oh        1 MOL     -0.890687
    182 H81       -12.4560    5.9440   -1.5910 ho        1 MOL      0.385529
    183 H82       -12.5400    4.9940   -2.7690 ho        1 MOL      0.385529
    184 O28       -12.8300    3.8290    0.7740 oh        1 MOL     -0.890687
    185 H83       -13.4160    3.8770    0.0270 ho        1 MOL      0.385529
    186 H84       -13.3870    4.0150    1.5270 ho        1 MOL      0.385529
    187 O29       -10.2700    6.1140    1.2040 oh        1 MOL     -0.890687
    188 H85       -10.3030    7.0220    0.9120 ho        1 MOL      0.385529
    189 H86       -10.2140    6.1810    2.1620 ho        1 MOL      0.385529
    190 O30       -11.4620    1.4650   -0.2890 oh        1 MOL     -0.890687
    191 H87       -10.7380    1.0900    0.2390 ho        1 MOL      0.385529
    192 H88       -12.1490    0.8100   -0.2400 ho        1 MOL      0.385529
    193 O31       -10.1660    3.2530    2.4550 oh        1 MOL     -0.890687
    194 H89       -10.9650    3.4470    2.9580 ho        1 MOL      0.385529
    195 H90        -9.9590    2.3440    2.6950 ho        1 MOL      0.385529
@<TRIPOS>BOND
     1    1    2 1   
     2    1    4 1   
     3    1    5 1   
     4    1    6 1   
     5    2    3 2   
     6    2    7 1   
     7    7    8 1   
     8    7   15 1   
     9    8    9 1   
    10    8   11 1   
    11    8   16 1   
    12    9   10 2   
    13    9   19 1   
    14   11   12 1   
    15   11   17 1   
    16   11   18 1   
    17   12   13 1   
    18   12   14 1   
    19   19   20 1   
    20   19   27 1   
    21   20   21 1   
    22   20   23 1   
    23   20   28 1   
    24   21   22 2   
    25   21   38 1   
    26   23   24 1   
    27   23   25 1   
    28   23   29 1   
    29   24   26 1   
    30   24   30 1   
    31   24   31 1   
    32   25   32 1   
    33   25   33 1   
    34   25   34 1   
    35   26   35 1   
    36   26   36 1   
    37   26   37 1   
    38   38   39 1   
    39   38   46 1   
    40   39   40 1   
    41   39   42 1   
    42   39   47 1   
    43   40   41 2   
    44   40   50 1   
    45   42   43 1   
    46   42   48 1   
    47   42   49 1   
    48   43   44 1   
    49   43   45 1   
    50   50   51 1   
    51   50   54 1   
    52   51   52 1   
    53   51   55 1   
    54   51   56 1   
    55   52   53 2   
    56   52   57 1   
    57   57   58 1   
    58   57   65 1   
    59   58   59 1   
    60   58   61 1   
    61   58   66 1   
    62   59   60 2   
    63   59   69 1   
    64   61   62 1   
    65   61   67 1   
    66   61   68 1   
    67   62   63 1   
    68   62   64 1   
    69   69   70 1   
    70   69   73 1   
    71   70   71 1   
    72   70   74 1   
    73   70   75 1   
    74   71   72 2   
    75   71   76 1   
    76   76   77 1   
    77   76   85 1   
    78   77   78 1   
    79   77   80 1   
    80   77   86 1   
    81   78   79 2   
    82   78   93 1   
    83   80   81 1   
    84   80   87 1   
    85   80   88 1   
    86   81   82 1   
    87   81   89 1   
    88   81   90 1   
    89   82   83 1   
    90   82   84 2   
    91   83   91 1   
    92   83   92 1   
    93   93   94 1   
    94   93  100 1   
    95   94   95 1   
    96   94   97 1   
    97   94  101 1   
    98   95   96 2   
    99   95  109 1   
   100   97   98 1   
   101   97   99 1   
   102   97  102 1   
   103   98  103 1   
   104   98  104 1   
   105   98  105 1   
   106   99  106 1   
   107   99  107 1   
   108   99  108 1   
   109  109  110 1   
   110  109  117 1   
   111  110  111 1   
   112  110  113 1   
   113  110  118 1   
   114  111  112 2   
   115  111  123 1   
   116  113  114 1   
   117  113  119 1   
   118  113  120 1   
   119  114  115 1   
   120  114  116 2   
   121  115  121 1   
   122  115  122 1   
   123  123  124 1   
   124  123  135 1   
   125  124  125 1   
   126  124  127 1   
   127  124  136 1   
   128  125  126 2   
   129  125  144 1   
   130  127  128 1   
   131  127  137 1   
   132  127  138 1   
   133  128  129 ar  
   134  128  130 ar  
   135  129  131 ar  
   136  129  139 1   
   137  130  132 ar  
   138  130  140 1   
   139  131  133 ar  
   140  131  141 1   
   141  132  133 ar  
   142  132  142 1   
   143  133  134 1   
   144  134  143 1   
   145  144  145 1   
   146  144  153 1   
   147  145  146 1   
   148  145  148 1   
   149  145  154 1   
   150  146  147 2   
   151  146  159 1   
   152  148  149 1   
   153  148  155 1   
   154  148  156 1   
   155  149  150 1   
   156  149  157 1   
   157  149  158 1   
   158  150  151 1   
   159  150  152 1   
   160  159  160 1   
   161  159  168 1   
   162  160  161 1   
   163  160  163 1   
   164  160  169 1   
   165  161  162 2   
   166  161  174 1   
   167  163  164 1   
   168  163  170 1   
   169  163  171 1   
   170  164  165 1   
   171  164  172 1   
   172  164  173 1   
   173  165  166 1   
   174  165  167 1   
   175  174  175 1   
   176  174  179 1   
   177  175  176 1   
   178  175  177 1   
   179  175  178 1   
   180  181  182 1   
   181  181  183 1   
   182  184  185 1   
   183  184  186 1   
   184  187  188 1   
   185  187  189 1   
   186  190  191 1   
   187  190  192 1   
   188  193  194 1   
   189  193  195 1   
@<TRIPOS>SUBSTRUCTURE
     1 MOL         1 TEMP              0 ****  ****    0 ROOT
