@<TRIPOS>MOLECULE
MOL
  195   189     1     0     0
SMALL
resp


@<TRIPOS>ATOM
      1 C1          6.6520   -5.3730    1.4520 c3        1 MOL     -0.277068
      2 C2          6.0020   -4.2020    0.6220 c         1 MOL      0.620939
      3 O1          6.6600   -3.6360   -0.2310 o         1 MOL     -0.604791
      4 H1          6.7310   -6.2610    0.8250 hc        1 MOL      0.071038
      5 H2          7.6450   -5.0740    1.7860 hc        1 MOL      0.071038
      6 H3          6.0280   -5.5950    2.3180 hc        1 MOL      0.071038
      7 N1          4.6810   -3.9300    0.7180 n         1 MOL     -0.382571
      8 C3          3.6250   -4.6560    1.5250 c3        1 MOL      0.107309
      9 C4          2.9080   -5.6810    0.6170 c         1 MOL      0.405091
     10 O2          2.6150   -6.7790    1.0050 o         1 MOL     -0.527189
     11 C5          2.5450   -3.7020    2.1120 c3        1 MOL     -0.203132
     12 C6          3.1740   -2.4330    2.6300 c         1 MOL      0.750648
     13 O3          3.1020   -1.3920    1.9240 o         1 MOL     -0.732914
     14 O4          3.4800   -2.3520    3.8070 o         1 MOL     -0.732914
     15 H4          4.4380   -3.1580    0.1190 hn        1 MOL      0.217442
     16 H5          4.0540   -5.2100    2.3530 h1        1 MOL      0.047563
     17 H6          2.0780   -4.1950    2.9670 hc        1 MOL      0.051823
     18 H7          1.7310   -3.5260    1.4070 hc        1 MOL      0.051823
     19 N2          2.6420   -5.2110   -0.5850 n         1 MOL     -0.142098
     20 C7          2.2730   -6.1690   -1.7000 c3        1 MOL     -0.507196
     21 C8          0.7650   -6.5100   -1.7690 c         1 MOL      0.651949
     22 O5          0.4280   -7.6560   -2.1430 o         1 MOL     -0.573061
     23 C9          2.8210   -5.6560   -3.0630 c3        1 MOL      0.108192
     24 C10         2.3310   -4.2160   -3.5250 c3        1 MOL      0.047147
     25 C11         4.3810   -5.5090   -3.0410 c3        1 MOL     -0.350725
     26 C12         1.1470   -4.3730   -4.4150 c3        1 MOL     -0.021117
     27 H8          2.7870   -4.2450   -0.8280 hn        1 MOL      0.290583
     28 H9          2.8560   -7.0620   -1.5120 h1        1 MOL      0.209336
     29 H10         2.5270   -6.3440   -3.8570 hc        1 MOL      0.052151
     30 H11         3.1540   -3.8510   -4.1430 hc        1 MOL     -0.004098
     31 H12         2.2960   -3.5360   -2.6780 hc        1 MOL     -0.004098
     32 H13         4.6640   -4.6620   -2.4110 hc        1 MOL      0.090673
     33 H14         4.8590   -6.3690   -2.5690 hc        1 MOL      0.090673
     34 H15         4.8220   -5.2580   -4.0150 hc        1 MOL      0.090673
     35 H16         1.1640   -3.4800   -5.0460 hc        1 MOL     -0.004516
     36 H17         1.3030   -5.2290   -5.0720 hc        1 MOL     -0.004516
     37 H18         0.1430   -4.2890   -3.9980 hc        1 MOL     -0.004516
     38 N3         -0.0840   -5.5590   -1.4360 n         1 MOL     -0.250349
     39 C13        -1.5730   -5.7100   -1.4170 c3        1 MOL      0.030035
     40 C14        -2.1820   -5.0790   -0.1590 c         1 MOL      0.369682
     41 O6         -1.6340   -4.1260    0.4550 o         1 MOL     -0.525266
     42 C15        -2.2230   -5.0970   -2.6570 c3        1 MOL     -0.053765
     43 C16        -3.6640   -5.4280   -2.6360 c         1 MOL      0.659520
     44 O7         -4.4580   -4.4710   -2.8670 o         1 MOL     -0.692544
     45 O8         -4.0720   -6.5580   -2.3420 o         1 MOL     -0.692544
     46 H19         0.1740   -4.5960   -1.2770 hn        1 MOL      0.130118
     47 H20        -1.7710   -6.7790   -1.3970 h1        1 MOL     -0.000406
     48 H21        -1.8190   -5.4800   -3.5910 hc        1 MOL      0.007561
     49 H22        -2.0260   -4.0300   -2.5490 hc        1 MOL      0.007561
     50 N4         -3.3190   -5.6360    0.2160 n         1 MOL     -0.105192
     51 C17        -4.2410   -5.2280    1.2970 c3        1 MOL     -0.302241
     52 C18        -4.8640   -3.8090    1.0820 c         1 MOL      0.679232
     53 O9         -4.1820   -2.8400    0.5890 o         1 MOL     -0.563663
     54 H23        -3.6860   -6.3230   -0.4280 hn        1 MOL      0.206061
     55 H24        -3.6620   -5.1860    2.2150 h1        1 MOL      0.096242
     56 H25        -5.0350   -5.9620    1.3870 h1        1 MOL      0.096242
     57 N5         -6.1690   -3.6190    1.2990 n         1 MOL     -0.488819
     58 C19        -6.8400   -2.2770    1.2710 c3        1 MOL      0.158647
     59 C20        -7.5930   -1.9530   -0.0530 c         1 MOL      0.659536
     60 O10        -8.1740   -2.8120   -0.6530 o         1 MOL     -0.583603
     61 C21        -7.8490   -2.3030    2.4300 c3        1 MOL     -0.495362
     62 C22        -8.5890   -0.9790    2.6680 c         1 MOL      0.813792
     63 O11        -9.7470   -0.7940    2.2070 o         1 MOL     -0.745690
     64 O12        -7.9650   -0.0510    3.2040 o         1 MOL     -0.745690
     65 H26        -6.7370   -4.4310    1.4900 hn        1 MOL      0.296111
     66 H27        -6.1420   -1.4510    1.4090 h1        1 MOL      0.067159
     67 H28        -7.2730   -2.5940    3.3080 hc        1 MOL      0.088501
     68 H29        -8.6210   -3.0650    2.3240 hc        1 MOL      0.088501
     69 N6         -7.4480   -0.7930   -0.6630 n         1 MOL     -0.510374
     70 C23        -6.7730    0.4540   -0.2790 c3        1 MOL      0.092326
     71 C24        -6.9070    1.5920   -1.4050 c         1 MOL      0.505107
     72 O13        -7.0170    1.2410   -2.5630 o         1 MOL     -0.515348
     73 H30        -8.0210   -0.7530   -1.5030 hn        1 MOL      0.288526
     74 H31        -5.7140    0.2860   -0.1150 h1        1 MOL      0.062698
     75 H32        -7.1070    0.7320    0.7200 h1        1 MOL      0.062698
     76 N7         -6.9830    2.8900   -1.0690 n         1 MOL     -0.517237
     77 C25        -6.4740    3.4350    0.1730 c3        1 MOL      0.173984
     78 C26        -5.1310    2.7800    0.5600 c         1 MOL      0.259062
     79 O14        -5.0580    2.2020    1.6420 o         1 MOL     -0.454338
     80 C27        -7.5330    3.4500    1.2740 c3        1 MOL      0.145303
     81 C28        -8.8510    4.1490    0.8750 c3        1 MOL     -0.133035
     82 C29       -10.0290    3.8610    1.7870 c         1 MOL      0.646960
     83 N8        -10.6010    2.7050    1.5270 n         1 MOL     -0.794323
     84 O15       -10.4360    4.6910    2.6300 o         1 MOL     -0.596066
     85 H33        -7.3800    3.4120   -1.8250 hn        1 MOL      0.293511
     86 H34        -6.1900    4.4750   -0.0030 h1        1 MOL      0.034779
     87 H35        -7.1350    4.0400    2.0960 hc        1 MOL     -0.008289
     88 H36        -7.8080    2.4730    1.6570 hc        1 MOL     -0.008289
     89 H37        -9.1320    3.9540   -0.1650 hc        1 MOL     -0.000699
     90 H38        -8.6510    5.2250    0.8610 hc        1 MOL     -0.000699
     91 H39       -10.2510    2.0590    0.8390 hn        1 MOL      0.379285
     92 H40       -11.3620    2.4380    2.1340 hn        1 MOL      0.379285
     93 N9         -4.1090    2.8770   -0.2940 n         1 MOL     -0.171762
     94 C30        -2.8450    2.3700    0.0590 c3        1 MOL     -0.295725
     95 C31        -2.2050    1.8360   -1.2440 c         1 MOL      0.698525
     96 O16        -2.2870    2.4520   -2.2730 o         1 MOL     -0.573910
     97 C32        -1.8820    3.4040    0.7250 c3        1 MOL      0.303478
     98 C33        -2.2800    3.9730    2.0400 c3        1 MOL     -0.294367
     99 C34        -1.7450    4.6030   -0.1800 c3        1 MOL     -0.294367
    100 H41        -4.1330    3.2200   -1.2490 hn        1 MOL      0.213764
    101 H42        -2.9680    1.5060    0.7120 h1        1 MOL      0.132640
    102 H43        -0.9440    2.8960    0.9170 hc        1 MOL     -0.016849
    103 H44        -1.5210    4.6990    2.3350 hc        1 MOL      0.073570
    104 H45        -3.2570    4.4630    2.0700 hc        1 MOL      0.073570
    105 H46        -2.3720    3.1410    2.7380 hc        1 MOL      0.073570
    106 H47        -1.0780    5.3370    0.2660 hc        1 MOL      0.073570
    107 H48        -1.2910    4.3740   -1.1370 hc        1 MOL      0.073570
    108 H49        -2.7400    5.0350   -0.2780 hc        1 MOL      0.073570
    109 N10        -1.4470    0.7660   -1.1370 n         1 MOL     -0.426939
    110 C35        -0.8420    0.0290   -2.2710 c3        1 MOL     -0.051317
    111 C36         0.4730    0.6440   -2.9040 c         1 MOL      0.446252
    112 O17         0.9150    0.2160   -3.9420 o         1 MOL     -0.506809
    113 C37        -0.4640   -1.4020   -1.7780 c3        1 MOL     -0.482501
    114 C38         0.6960   -1.4770   -0.8160 c         1 MOL      0.542906
    115 N11         0.4390   -1.4170    0.4220 n         1 MOL     -0.570343
    116 O18         1.8160   -1.3990   -1.2590 o         1 MOL     -0.508589
    117 H50        -1.5950    0.2510   -0.2820 hn        1 MOL      0.247425
    118 H51        -1.5580   -0.1800   -3.0700 h1        1 MOL      0.141791
    119 H52        -0.1120   -1.9130   -2.6710 hc        1 MOL      0.222166
    120 H53        -1.3770   -1.8160   -1.3380 hc        1 MOL      0.222166
    121 H54        -0.5300   -1.3560    0.7270 hn        1 MOL      0.286641
    122 H55         1.2050   -1.2200    1.0430 hn        1 MOL      0.286641
    123 N12         0.9230    1.6870   -2.2330 n         1 MOL     -0.062145
    124 C39         2.1470    2.3820   -2.5940 c3        1 MOL     -0.180296
    125 C40         2.7560    3.0420   -1.3650 c         1 MOL      0.778068
    126 O19         2.1140    3.3070   -0.3640 o         1 MOL     -0.630954
    127 C41         1.9200    3.3940   -3.7120 c3        1 MOL      0.343245
    128 C42         0.7800    4.4520   -3.6810 ca        1 MOL     -0.100524
    129 C43         1.0370    5.6790   -2.9920 ca        1 MOL     -0.039779
    130 C44        -0.4830    4.0830   -4.2010 ca        1 MOL     -0.039779
    131 C45        -0.0160    6.5840   -2.6570 ca        1 MOL     -0.354136
    132 C46        -1.5050    5.0540   -4.0010 ca        1 MOL     -0.354136
    133 C47        -1.2370    6.2800   -3.2840 ca        1 MOL      0.336965
    134 O20        -2.2420    7.2370   -3.1540 oh        1 MOL     -0.470987
    135 H56         0.3400    1.9690   -1.4620 hn        1 MOL      0.087756
    136 H57         2.9120    1.6580   -2.8740 h1        1 MOL      0.093883
    137 H58         1.5690    2.8220   -4.5730 hc        1 MOL     -0.110613
    138 H59         2.8640    3.8750   -3.9750 hc        1 MOL     -0.110613
    139 H60         2.0420    5.7660   -2.6160 ha        1 MOL      0.130950
    140 H61        -0.7570    3.1980   -4.7430 ha        1 MOL      0.130950
    141 H62         0.0900    7.5350   -2.1450 ha        1 MOL      0.196874
    142 H63        -2.4470    4.7050   -4.3970 ha        1 MOL      0.196874
    143 H64        -3.0160    6.8550   -3.5730 ho        1 MOL      0.317383
    144 N13         4.0110    3.2830   -1.4010 n         1 MOL     -0.649753
    145 C48         4.8570    3.8600   -0.3840 c3        1 MOL      0.038927
    146 C49         6.2110    3.1390   -0.3820 c         1 MOL      0.618696
    147 O21         7.1370    3.5620   -1.0580 o         1 MOL     -0.534000
    148 C50         4.8590    5.3600   -0.6730 c3        1 MOL     -0.055318
    149 C51         5.3550    6.2560    0.4520 c3        1 MOL     -0.266892
    150 C52         5.2940    7.7570    0.1210 c         1 MOL      0.700603
    151 O22         4.2330    8.2440   -0.3000 o         1 MOL     -0.732533
    152 O23         6.3960    8.4690    0.2730 o         1 MOL     -0.732533
    153 H65         4.3060    3.1490   -2.3630 hn        1 MOL      0.325999
    154 H66         4.5130    3.7480    0.6450 h1        1 MOL      0.043154
    155 H67         3.8470    5.7400   -0.8160 hc        1 MOL      0.074606
    156 H68         5.3910    5.6330   -1.5800 hc        1 MOL      0.074606
    157 H69         6.3300    5.9260    0.8180 hc        1 MOL      0.035641
    158 H70         4.7860    6.0620    1.3590 hc        1 MOL      0.035641
    159 N14         6.4270    2.0580    0.3950 n         1 MOL     -0.389191
    160 C53         7.5530    1.0530    0.1170 c3        1 MOL     -0.220371
    161 C54         7.5290    0.5450   -1.2850 c         1 MOL      0.507505
    162 O24         8.5760    0.4290   -1.8850 o         1 MOL     -0.545294
    163 C55         7.4340   -0.1210    1.1100 c3        1 MOL      0.067376
    164 C56         7.3830    0.4480    2.5650 c3        1 MOL     -0.151940
    165 C57         6.0050    0.4500    3.1990 c         1 MOL      0.707956
    166 O25         5.6690   -0.4880    3.9850 o         1 MOL     -0.758332
    167 O26         5.1960    1.3260    2.9270 o         1 MOL     -0.758332
    168 H71         5.6840    1.7480    0.9980 hn        1 MOL      0.282099
    169 H72         8.5040    1.5560    0.2990 h1        1 MOL      0.149693
    170 H73         8.3480   -0.7100    1.0120 hc        1 MOL      0.052625
    171 H74         6.5320   -0.7340    1.0220 hc        1 MOL      0.052625
    172 H75         7.8230    1.4520    2.5300 hc        1 MOL      0.017458
    173 H76         8.0050   -0.1900    3.1830 hc        1 MOL      0.017458
    174 N15         6.3580    0.1980   -1.8030 n         1 MOL     -0.261634
    175 C58         6.1810   -0.1000   -3.2330 c3        1 MOL     -0.104334
    176 H77         5.4290   -0.8810   -3.3510 h1        1 MOL      0.071745
    177 H78         5.8540    0.8000   -3.7550 h1        1 MOL      0.071745
    178 H79         7.1270   -0.4410   -3.6540 h1        1 MOL      0.071745
    179 H80         5.5710    0.3370   -1.1830 hn        1 MOL      0.226981
    180 Ca1         3.0880    0.3070    4.1170 Ca        1 MOL      1.768068
    181 O27         4.5950    1.2160    6.0790 oh        1 MOL     -0.828541
    182 O28         2.2140    2.1090    2.3250 oh        1 MOL     -0.828541
    183 H81         5.2080    1.9410    5.9880 ho        1 MOL      0.412408
    184 H82         2.3710    2.2620    1.3970 ho        1 MOL      0.412408
    185 H83         5.0820    0.5460    6.5480 ho        1 MOL      0.412408
    186 H84         1.5930    2.7920    2.5830 ho        1 MOL      0.412408
    187 O29         0.4110    0.2450    3.3720 oh        1 MOL     -0.828541
    188 H85         0.1440   -0.6800    3.4090 ho        1 MOL      0.412408
    189 H86        -0.4070    0.7380    3.4840 ho        1 MOL      0.412408
    190 O30         1.5590    1.9310    5.5280 oh        1 MOL     -0.828541
    191 H87         0.6300    1.8190    5.3580 ho        1 MOL      0.412408
    192 H88         1.6060    2.7310    6.0490 ho        1 MOL      0.412408
    193 O31         1.9550   -1.1000    6.1980 oh        1 MOL     -0.828541
    194 H89         1.7690   -0.6280    7.0110 ho        1 MOL      0.412408
    195 H90         1.6560   -1.9940    6.3670 ho        1 MOL      0.412408
@<TRIPOS>BOND
     1    1    2 1   
     2    1    4 1   
     3    1    5 1   
     4    1    6 1   
     5    2    3 2   
     6    2    7 1   
     7    7    8 1   
     8    7   15 1   
     9    8    9 1   
    10    8   11 1   
    11    8   16 1   
    12    9   10 2   
    13    9   19 1   
    14   11   12 1   
    15   11   17 1   
    16   11   18 1   
    17   12   13 1   
    18   12   14 1   
    19   19   20 1   
    20   19   27 1   
    21   20   21 1   
    22   20   23 1   
    23   20   28 1   
    24   21   22 2   
    25   21   38 1   
    26   23   24 1   
    27   23   25 1   
    28   23   29 1   
    29   24   26 1   
    30   24   30 1   
    31   24   31 1   
    32   25   32 1   
    33   25   33 1   
    34   25   34 1   
    35   26   35 1   
    36   26   36 1   
    37   26   37 1   
    38   38   39 1   
    39   38   46 1   
    40   39   40 1   
    41   39   42 1   
    42   39   47 1   
    43   40   41 2   
    44   40   50 1   
    45   42   43 1   
    46   42   48 1   
    47   42   49 1   
    48   43   44 1   
    49   43   45 1   
    50   50   51 1   
    51   50   54 1   
    52   51   52 1   
    53   51   55 1   
    54   51   56 1   
    55   52   53 2   
    56   52   57 1   
    57   57   58 1   
    58   57   65 1   
    59   58   59 1   
    60   58   61 1   
    61   58   66 1   
    62   59   60 2   
    63   59   69 1   
    64   61   62 1   
    65   61   67 1   
    66   61   68 1   
    67   62   63 1   
    68   62   64 1   
    69   69   70 1   
    70   69   73 1   
    71   70   71 1   
    72   70   74 1   
    73   70   75 1   
    74   71   72 2   
    75   71   76 1   
    76   76   77 1   
    77   76   85 1   
    78   77   78 1   
    79   77   80 1   
    80   77   86 1   
    81   78   79 2   
    82   78   93 1   
    83   80   81 1   
    84   80   87 1   
    85   80   88 1   
    86   81   82 1   
    87   81   89 1   
    88   81   90 1   
    89   82   83 1   
    90   82   84 2   
    91   83   91 1   
    92   83   92 1   
    93   93   94 1   
    94   93  100 1   
    95   94   95 1   
    96   94   97 1   
    97   94  101 1   
    98   95   96 2   
    99   95  109 1   
   100   97   98 1   
   101   97   99 1   
   102   97  102 1   
   103   98  103 1   
   104   98  104 1   
   105   98  105 1   
   106   99  106 1   
   107   99  107 1   
   108   99  108 1   
   109  109  110 1   
   110  109  117 1   
   111  110  111 1   
   112  110  113 1   
   113  110  118 1   
   114  111  112 2   
   115  111  123 1   
   116  113  114 1   
   117  113  119 1   
   118  113  120 1   
   119  114  115 1   
   120  114  116 2   
   121  115  121 1   
   122  115  122 1   
   123  123  124 1   
   124  123  135 1   
   125  124  125 1   
   126  124  127 1   
   127  124  136 1   
   128  125  126 2   
   129  125  144 1   
   130  127  128 1   
   131  127  137 1   
   132  127  138 1   
   133  128  129 ar  
   134  128  130 ar  
   135  129  131 ar  
   136  129  139 1   
   137  130  132 ar  
   138  130  140 1   
   139  131  133 ar  
   140  131  141 1   
   141  132  133 ar  
   142  132  142 1   
   143  133  134 1   
   144  134  143 1   
   145  144  145 1   
   146  144  153 1   
   147  145  146 1   
   148  145  148 1   
   149  145  154 1   
   150  146  147 2   
   151  146  159 1   
   152  148  149 1   
   153  148  155 1   
   154  148  156 1   
   155  149  150 1   
   156  149  157 1   
   157  149  158 1   
   158  150  151 1   
   159  150  152 1   
   160  159  160 1   
   161  159  168 1   
   162  160  161 1   
   163  160  163 1   
   164  160  169 1   
   165  161  162 2   
   166  161  174 1   
   167  163  164 1   
   168  163  170 1   
   169  163  171 1   
   170  164  165 1   
   171  164  172 1   
   172  164  173 1   
   173  165  166 1   
   174  165  167 1   
   175  174  175 1   
   176  174  179 1   
   177  175  176 1   
   178  175  177 1   
   179  175  178 1   
   180  181  183 1   
   181  181  185 1   
   182  182  184 1   
   183  182  186 1   
   184  187  188 1   
   185  187  189 1   
   186  190  191 1   
   187  190  192 1   
   188  193  194 1   
   189  193  195 1   
@<TRIPOS>SUBSTRUCTURE
     1 MOL         1 TEMP              0 ****  ****    0 ROOT
