@<TRIPOS>MOLECULE
MOL
  192   187     1     0     0
SMALL
resp


@<TRIPOS>ATOM
      1 C1          9.9120    0.4600    1.6470 c3        1 MOL     -0.447877
      2 C2          8.6340    0.1800    0.7890 c         1 MOL      0.784013
      3 O1          7.5350    0.4200    1.2370 o         1 MOL     -0.685998
      4 H1          9.6170    0.7400    2.6590 hc        1 MOL      0.107502
      5 H2         10.5290   -0.4380    1.6840 hc        1 MOL      0.107502
      6 H3         10.4810    1.2740    1.1980 hc        1 MOL      0.107502
      7 N1          8.8320   -0.2030   -0.4350 n         1 MOL     -0.487159
      8 C3          7.7340   -0.4850   -1.4240 c3        1 MOL     -0.173511
      9 C4          6.9160   -1.7550   -1.2490 c         1 MOL      0.532630
     10 O2          6.5080   -2.3540   -2.1420 o         1 MOL     -0.442585
     11 C5          8.2410   -0.2570   -2.9090 c3        1 MOL     -0.277359
     12 C6          9.3540   -1.2130   -3.3050 c         1 MOL      0.785960
     13 O3          9.7650   -1.2380   -4.4710 o         1 MOL     -0.667782
     14 O4          9.9480   -1.9250   -2.4070 o         1 MOL     -0.667782
     15 H4          9.7780   -0.4280   -0.7020 hn        1 MOL      0.267543
     16 H5          7.0340    0.3130   -1.1970 h1        1 MOL      0.173598
     17 H6          8.6820    0.7300   -2.9470 hc        1 MOL      0.107997
     18 H7          7.4600   -0.3260   -3.6690 hc        1 MOL      0.107997
     19 N2          6.6230   -2.1020    0.0370 n         1 MOL     -0.226743
     20 C7          6.0940   -3.4030    0.4850 c3        1 MOL     -0.088155
     21 C8          4.6160   -3.6890    0.1570 c         1 MOL      0.582654
     22 O5          4.2990   -4.8690   -0.0940 o         1 MOL     -0.563394
     23 C9          6.3550   -3.6070    2.0210 c3        1 MOL     -0.023565
     24 C10         7.8710   -3.8080    2.3190 c3        1 MOL      0.042292
     25 C11         8.0810   -4.0810    3.8060 c3        1 MOL     -0.050610
     26 C12         9.5230   -4.4160    4.1950 c3        1 MOL      0.049522
     27 N3          9.6730   -4.5420    5.6620 n4        1 MOL     -0.117788
     28 H8          6.9970   -1.4040    0.6650 hn        1 MOL      0.158593
     29 H9          6.6610   -4.1740   -0.0320 h1        1 MOL      0.108264
     30 H10         5.8160   -4.4730    2.4170 hc        1 MOL      0.029303
     31 H11         5.9540   -2.8350    2.6880 hc        1 MOL      0.029303
     32 H12         8.3730   -2.9170    1.9500 hc        1 MOL      0.015179
     33 H13         8.2810   -4.5690    1.6550 hc        1 MOL      0.015179
     34 H14         7.5380   -4.9560    4.1700 hc        1 MOL      0.026401
     35 H15         7.8680   -3.1490    4.3340 hc        1 MOL      0.026401
     36 H16        10.1880   -3.6390    3.8220 hx        1 MOL      0.064619
     37 H17         9.7240   -5.3650    3.7110 hx        1 MOL      0.064619
     38 H18         9.0650   -3.8870    6.1410 hn        1 MOL      0.213708
     39 H19         9.2270   -5.3350    6.0950 hn        1 MOL      0.213708
     40 H20        10.6330   -4.5570    5.9600 hn        1 MOL      0.213708
     41 N4          3.5940   -2.7940    0.2510 n         1 MOL     -0.490497
     42 C13         3.6340   -1.4760    0.9130 c3        1 MOL      0.053880
     43 C14         3.7850   -0.3210   -0.0350 c         1 MOL      0.139077
     44 O6          3.4270   -0.3950   -1.2170 o         1 MOL     -0.379809
     45 C15         2.4280   -1.3690    1.9130 c3        1 MOL     -0.151160
     46 C16         1.0070   -1.6800    1.2480 c         1 MOL      0.748895
     47 O7          0.7040   -1.0710    0.1740 o         1 MOL     -0.703413
     48 O8          0.1460   -2.4040    1.8860 o         1 MOL     -0.703413
     49 H21         2.7450   -3.1340   -0.1660 hn        1 MOL      0.359142
     50 H22         4.5460   -1.4710    1.4990 h1        1 MOL      0.067774
     51 H23         2.4970   -0.4190    2.4450 hc        1 MOL      0.031361
     52 H24         2.5540   -2.0870    2.7330 hc        1 MOL      0.031361
     53 N5          4.3200    0.8250    0.3730 n         1 MOL      0.008023
     54 C17         4.3750    2.1270   -0.3060 c3        1 MOL     -0.179507
     55 C18         3.0540    2.6980   -0.7510 c         1 MOL      0.802822
     56 O9          1.9990    2.0490   -0.5770 o         1 MOL     -0.685615
     57 H25         4.5740    0.8680    1.3510 hn        1 MOL      0.201832
     58 H26         5.1330    2.1580   -1.0870 h1        1 MOL      0.062074
     59 H27         4.6370    2.8280    0.4910 h1        1 MOL      0.062074
     60 N6          3.1600    3.8760   -1.3870 n         1 MOL     -0.598238
     61 C19         2.1360    4.6280   -1.9730 c3        1 MOL      0.152526
     62 C20         2.4980    6.1010   -1.8890 c         1 MOL      0.574093
     63 O10         3.6730    6.4350   -1.8580 o         1 MOL     -0.568980
     64 C21         2.0060    4.1620   -3.4290 c3        1 MOL     -0.216076
     65 C22         1.4820    2.7030   -3.5700 c         1 MOL      0.602938
     66 O11         2.2390    1.7930   -4.0750 o         1 MOL     -0.657030
     67 O12         0.4020    2.3940   -3.0410 o         1 MOL     -0.657030
     68 H28         4.0740    4.2090   -1.6730 hn        1 MOL      0.325530
     69 H29         1.1960    4.5420   -1.4260 h1        1 MOL      0.075767
     70 H30         2.9660    4.2710   -3.9470 hc        1 MOL      0.066157
     71 H31         1.3460    4.8240   -3.9900 hc        1 MOL      0.066157
     72 N7          1.5960    7.0420   -1.8750 n         1 MOL     -0.481026
     73 C23         0.1930    6.9900   -2.2860 c3        1 MOL     -0.009012
     74 C24        -0.7620    6.6520   -1.1040 c         1 MOL      0.630904
     75 O13        -0.5050    6.9680    0.0260 o         1 MOL     -0.524132
     76 H32         1.9760    7.9700   -1.7270 hn        1 MOL      0.316143
     77 H33         0.0680    6.2010   -3.0240 h1        1 MOL      0.058863
     78 H34        -0.1830    7.9150   -2.7330 h1        1 MOL      0.058863
     79 N8         -1.8540    5.9330   -1.3560 n         1 MOL     -0.645963
     80 C25        -2.5570    5.2490   -0.2660 c3        1 MOL      0.047129
     81 C26        -1.7600    4.0580    0.3860 c         1 MOL      0.774010
     82 O14        -1.0720    3.2690   -0.2620 o         1 MOL     -0.788368
     83 C27        -3.8680    4.7580   -0.7210 c3        1 MOL      0.266053
     84 C28        -4.6760    4.1300    0.3850 c3        1 MOL     -0.043941
     85 O15        -3.8230    3.7800   -1.7210 oh        1 MOL     -0.588930
     86 H35        -1.9580    5.5320   -2.2730 hn        1 MOL      0.309393
     87 H36        -2.6930    5.9930    0.5140 h1        1 MOL      0.075367
     88 H37        -4.4890    5.5920   -1.0500 h1        1 MOL      0.005106
     89 H38        -3.2940    4.1700   -2.4270 ho        1 MOL      0.377601
     90 H39        -5.7560    4.0580    0.2280 hc        1 MOL      0.013975
     91 H40        -4.2370    3.1440    0.5500 hc        1 MOL      0.013975
     92 H41        -4.5870    4.7740    1.2560 hc        1 MOL      0.013975
     93 N9         -1.7840    4.0780    1.6990 n         1 MOL     -0.469951
     94 C29        -1.0840    3.0350    2.4710 c3        1 MOL     -0.224657
     95 C30        -1.5060    1.6060    2.2290 c         1 MOL      0.614635
     96 O16        -1.0720    0.9210    1.2660 o         1 MOL     -0.551897
     97 C31         0.4010    3.2670    2.2950 c3        1 MOL     -0.044615
     98 C32         0.8200    4.6610    2.9160 c3        1 MOL      0.131208
     99 C33         1.2950    2.2120    3.0760 c3        1 MOL     -0.345490
    100 C34         2.3220    5.0430    2.7000 c3        1 MOL     -0.394119
    101 H42        -2.2110    4.8760    2.1470 hn        1 MOL      0.311947
    102 H43        -1.3930    3.2250    3.4990 h1        1 MOL      0.122692
    103 H44         0.7520    3.1710    1.2700 hc        1 MOL      0.196485
    104 H45         0.6390    4.7090    3.9840 hc        1 MOL     -0.007340
    105 H46         0.1520    5.4210    2.5000 hc        1 MOL     -0.007340
    106 H47         1.4020    2.3190    4.1510 hc        1 MOL      0.099361
    107 H48         0.9230    1.2330    2.7830 hc        1 MOL      0.099361
    108 H49         2.2550    2.2210    2.5510 hc        1 MOL      0.099361
    109 H50         2.9270    4.2390    3.1270 hc        1 MOL      0.101964
    110 H51         2.3630    5.1860    1.6180 hc        1 MOL      0.101964
    111 H52         2.4130    5.9400    3.3120 hc        1 MOL      0.101964
    112 N10        -2.3790    0.9630    3.0670 n         1 MOL     -0.412735
    113 C35        -2.7510   -0.4950    3.0000 c3        1 MOL      0.269554
    114 C36        -4.2230   -0.6840    2.8160 c         1 MOL      0.342510
    115 O17        -4.6980   -1.8100    2.9930 o         1 MOL     -0.581000
    116 C37        -2.3190   -1.1930    4.2700 c3        1 MOL      0.405015
    117 C38        -2.7870   -0.4440    5.5200 c3        1 MOL     -0.111803
    118 O18        -0.9130   -1.1970    4.2070 oh        1 MOL     -0.655594
    119 H53        -2.8210    1.5940    3.7310 hn        1 MOL      0.241213
    120 H54        -2.2210   -1.0110    2.1920 h1        1 MOL     -0.036061
    121 H55        -2.7550   -2.1860    4.3650 h1        1 MOL     -0.001842
    122 H56        -0.6150   -1.6360    3.4100 ho        1 MOL      0.376805
    123 H57        -2.2910    0.5170    5.5740 hc        1 MOL      0.008508
    124 H58        -3.8460   -0.1680    5.5270 hc        1 MOL      0.008508
    125 H59        -2.4960   -1.0390    6.3840 hc        1 MOL      0.008508
    126 N11        -4.9840    0.3420    2.4720 n         1 MOL     -0.119421
    127 C39        -6.4820    0.1590    2.3690 c3        1 MOL     -0.031113
    128 C40        -6.8580   -0.5350    1.0680 c         1 MOL      0.582905
    129 O19        -7.2230    0.0480    0.0570 o         1 MOL     -0.540797
    130 C41        -7.2490    1.4760    2.4980 c3        1 MOL      0.371759
    131 C42        -8.6870    1.2690    2.9630 c3        1 MOL     -0.125037
    132 O20        -6.5440    2.3010    3.3990 oh        1 MOL     -0.692558
    133 H60        -4.6000    1.2530    2.2580 hn        1 MOL      0.164935
    134 H61        -6.9170   -0.4130    3.1840 h1        1 MOL      0.066011
    135 H62        -7.1880    2.0610    1.5790 h1        1 MOL     -0.038375
    136 H63        -7.1850    2.9420    3.7090 ho        1 MOL      0.423758
    137 H64        -8.9220    0.2300    3.2010 hc        1 MOL      0.028464
    138 H65        -8.9160    1.9100    3.8130 hc        1 MOL      0.028464
    139 H66        -9.4170    1.5310    2.1880 hc        1 MOL      0.028464
    140 N12        -6.7050   -1.8500    1.0440 n         1 MOL     -0.722396
    141 C43        -6.6330   -2.7220   -0.1330 c3        1 MOL      0.433088
    142 C44        -5.2450   -2.4040   -0.8180 c         1 MOL      0.564541
    143 O21        -4.7520   -1.2900   -0.8690 o         1 MOL     -0.522708
    144 C45        -7.8640   -2.6980   -0.9960 c3        1 MOL     -0.919697
    145 C46        -9.1740   -2.6870   -0.1980 c3        1 MOL      0.345767
    146 C47       -10.3300   -2.6130   -1.1060 c3        1 MOL      0.006234
    147 C48       -11.7200   -2.8590   -0.4570 c3        1 MOL      0.084202
    148 N13       -12.8930   -2.3820   -1.2280 n4        1 MOL     -0.087409
    149 H67        -6.3840   -2.2740    1.9010 hn        1 MOL      0.354372
    150 H68        -6.5220   -3.7000    0.3240 h1        1 MOL      0.018354
    151 H69        -7.9410   -3.5710   -1.6450 hc        1 MOL      0.250920
    152 H70        -7.8070   -1.7710   -1.5660 hc        1 MOL      0.250920
    153 H71        -9.1890   -1.8130    0.4570 hc        1 MOL     -0.017038
    154 H72        -9.3500   -3.4890    0.5190 hc        1 MOL     -0.017038
    155 H73       -10.1680   -3.4330   -1.8000 hc        1 MOL      0.017162
    156 H74       -10.3290   -1.6610   -1.6190 hc        1 MOL      0.017162
    157 H75       -11.7790   -2.3010    0.4800 hx        1 MOL      0.017763
    158 H76       -11.9180   -3.9190   -0.2630 hx        1 MOL      0.017763
    159 H77       -13.7450   -2.6520   -0.7690 hn        1 MOL      0.178601
    160 H78       -12.9230   -1.3960   -1.4560 hn        1 MOL      0.178601
    161 H79       -12.9780   -2.9840   -2.0410 hn        1 MOL      0.178601
    162 N14        -4.6680   -3.4220   -1.3910 n         1 MOL     -0.500468
    163 C49        -3.3650   -3.3030   -2.0190 c3        1 MOL      0.331121
    164 C50        -2.2540   -2.7940   -1.0680 c         1 MOL      0.244190
    165 O22        -1.5510   -1.8410   -1.4540 o         1 MOL     -0.514129
    166 C51        -2.8990   -4.6090   -2.7340 c3        1 MOL      0.216518
    167 C52        -3.8350   -4.9470   -3.8850 c3        1 MOL     -0.329352
    168 C53        -3.5180   -6.3310   -4.4740 c         1 MOL      0.691004
    169 O23        -4.1960   -7.3820   -4.2100 o         1 MOL     -0.617889
    170 O24        -2.5760   -6.4660   -5.2730 o         1 MOL     -0.617889
    171 H80        -5.1940   -4.2720   -1.3200 hn        1 MOL      0.271903
    172 H81        -3.4730   -2.5030   -2.7650 h1        1 MOL     -0.005927
    173 H82        -2.9100   -5.4520   -2.0320 hc        1 MOL     -0.008395
    174 H83        -1.8740   -4.3920   -3.0390 hc        1 MOL     -0.008395
    175 H84        -3.7450   -4.1390   -4.6010 hc        1 MOL      0.038464
    176 H85        -4.8850   -4.9640   -3.6010 hc        1 MOL      0.038464
    177 N15        -2.0280   -3.2260    0.1390 n         1 MOL     -0.182935
    178 C54        -2.5020   -4.5390    0.6510 c3        1 MOL     -0.077378
    179 H86        -2.0690   -5.3410    0.0520 h1        1 MOL      0.033829
    180 H87        -2.1960   -4.6570    1.6900 h1        1 MOL      0.033829
    181 H88        -3.5900   -4.5850    0.5850 h1        1 MOL      0.033829
    182 H89        -1.3430   -2.8200    0.7630 hn        1 MOL      0.313232
    183 Ca1        -0.4470    0.7590   -1.1650 Ca        1 MOL      1.830590
    184 O25        -1.5940    0.2280   -3.4550 oh        1 MOL     -0.865413
    185 H90        -2.1070    0.8130   -4.0080 ho        1 MOL      0.412265
    186 H91        -1.4310   -0.5410   -3.9920 ho        1 MOL      0.412265
    187 O26        -3.2090    0.8170   -0.8940 oh        1 MOL     -0.865413
    188 H92        -3.4810    1.1710   -1.7410 ho        1 MOL      0.412265
    189 H93        -3.7190    0.0140   -0.8000 ho        1 MOL      0.412265
    190 O27         1.3890   -0.6240   -2.7830 oh        1 MOL     -0.865413
    191 H94         2.1140   -0.6030   -2.1570 ho        1 MOL      0.412265
    192 H95         1.6680   -0.0630   -3.5010 ho        1 MOL      0.412265
@<TRIPOS>BOND
     1    1    2 1   
     2    1    4 1   
     3    1    5 1   
     4    1    6 1   
     5    2    3 2   
     6    2    7 1   
     7    7    8 1   
     8    7   15 1   
     9    8    9 1   
    10    8   11 1   
    11    8   16 1   
    12    9   10 2   
    13    9   19 1   
    14   11   12 1   
    15   11   17 1   
    16   11   18 1   
    17   12   13 1   
    18   12   14 1   
    19   19   20 1   
    20   19   28 1   
    21   20   21 1   
    22   20   23 1   
    23   20   29 1   
    24   21   22 2   
    25   21   41 1   
    26   23   24 1   
    27   23   30 1   
    28   23   31 1   
    29   24   25 1   
    30   24   32 1   
    31   24   33 1   
    32   25   26 1   
    33   25   34 1   
    34   25   35 1   
    35   26   27 1   
    36   26   36 1   
    37   26   37 1   
    38   27   38 1   
    39   27   39 1   
    40   27   40 1   
    41   41   42 1   
    42   41   49 1   
    43   42   43 1   
    44   42   45 1   
    45   42   50 1   
    46   43   44 2   
    47   43   53 1   
    48   45   46 1   
    49   45   51 1   
    50   45   52 1   
    51   46   47 1   
    52   46   48 1   
    53   53   54 1   
    54   53   57 1   
    55   54   55 1   
    56   54   58 1   
    57   54   59 1   
    58   55   56 2   
    59   55   60 1   
    60   60   61 1   
    61   60   68 1   
    62   61   62 1   
    63   61   64 1   
    64   61   69 1   
    65   62   63 2   
    66   62   72 1   
    67   64   65 1   
    68   64   70 1   
    69   64   71 1   
    70   65   66 1   
    71   65   67 1   
    72   72   73 1   
    73   72   76 1   
    74   73   74 1   
    75   73   77 1   
    76   73   78 1   
    77   74   75 2   
    78   74   79 1   
    79   79   80 1   
    80   79   86 1   
    81   80   81 1   
    82   80   83 1   
    83   80   87 1   
    84   81   82 2   
    85   81   93 1   
    86   83   84 1   
    87   83   85 1   
    88   83   88 1   
    89   84   90 1   
    90   84   91 1   
    91   84   92 1   
    92   85   89 1   
    93   93   94 1   
    94   93  101 1   
    95   94   95 1   
    96   94   97 1   
    97   94  102 1   
    98   95   96 2   
    99   95  112 1   
   100   97   98 1   
   101   97   99 1   
   102   97  103 1   
   103   98  100 1   
   104   98  104 1   
   105   98  105 1   
   106   99  106 1   
   107   99  107 1   
   108   99  108 1   
   109  100  109 1   
   110  100  110 1   
   111  100  111 1   
   112  112  113 1   
   113  112  119 1   
   114  113  114 1   
   115  113  116 1   
   116  113  120 1   
   117  114  115 2   
   118  114  126 1   
   119  116  117 1   
   120  116  118 1   
   121  116  121 1   
   122  117  123 1   
   123  117  124 1   
   124  117  125 1   
   125  118  122 1   
   126  126  127 1   
   127  126  133 1   
   128  127  128 1   
   129  127  130 1   
   130  127  134 1   
   131  128  129 2   
   132  128  140 1   
   133  130  131 1   
   134  130  132 1   
   135  130  135 1   
   136  131  137 1   
   137  131  138 1   
   138  131  139 1   
   139  132  136 1   
   140  140  141 1   
   141  140  149 1   
   142  141  142 1   
   143  141  144 1   
   144  141  150 1   
   145  142  143 2   
   146  142  162 1   
   147  144  145 1   
   148  144  151 1   
   149  144  152 1   
   150  145  146 1   
   151  145  153 1   
   152  145  154 1   
   153  146  147 1   
   154  146  155 1   
   155  146  156 1   
   156  147  148 1   
   157  147  157 1   
   158  147  158 1   
   159  148  159 1   
   160  148  160 1   
   161  148  161 1   
   162  162  163 1   
   163  162  171 1   
   164  163  164 1   
   165  163  166 1   
   166  163  172 1   
   167  164  165 2   
   168  164  177 1   
   169  166  167 1   
   170  166  173 1   
   171  166  174 1   
   172  167  168 1   
   173  167  175 1   
   174  167  176 1   
   175  168  169 1   
   176  168  170 1   
   177  177  178 1   
   178  177  182 1   
   179  178  179 1   
   180  178  180 1   
   181  178  181 1   
   182  184  185 1   
   183  184  186 1   
   184  187  188 1   
   185  187  189 1   
   186  190  191 1   
   187  190  192 1   
@<TRIPOS>SUBSTRUCTURE
     1 MOL         1 TEMP              0 ****  ****    0 ROOT
