@<TRIPOS>MOLECULE
MOL
  184   179     1     0     0
SMALL
resp


@<TRIPOS>ATOM
      1 C1          1.9730   -3.5610    3.6640 c3        1 MOL     -0.341600
      2 C2          3.4640   -3.2990    3.3160 c         1 MOL      0.723122
      3 O1          3.8730   -2.1690    3.1520 o         1 MOL     -0.592515
      4 H1          1.5270   -2.6490    4.0610 hc        1 MOL      0.075600
      5 H2          1.4380   -3.8640    2.7640 hc        1 MOL      0.075600
      6 H3          1.9070   -4.3520    4.4110 hc        1 MOL      0.075600
      7 N1          4.2920   -4.3160    3.1260 n         1 MOL     -0.574359
      8 C3          5.6680   -4.1240    2.7530 c3        1 MOL      0.102541
      9 C4          5.9180   -3.3510    1.4120 c         1 MOL      0.675392
     10 O2          5.2910   -3.7160    0.4390 o         1 MOL     -0.571448
     11 C5          6.3870   -5.4440    2.8210 c3        1 MOL     -0.143972
     12 C6          7.8820   -5.3350    2.7830 c         1 MOL      0.692866
     13 O3          8.5050   -6.4110    2.6160 o         1 MOL     -0.726519
     14 O4          8.4170   -4.2380    3.0310 o         1 MOL     -0.726519
     15 H4          3.9620   -5.2620    3.2000 hn        1 MOL      0.276675
     16 H5          6.1350   -3.5670    3.5640 h1        1 MOL      0.032047
     17 H6          6.0360   -6.1810    2.0980 hc        1 MOL      0.005869
     18 H7          6.0780   -5.9910    3.7090 hc        1 MOL      0.005869
     19 N2          6.8360   -2.4080    1.5100 n         1 MOL     -0.536261
     20 C7          7.3440   -1.5010    0.5060 c3        1 MOL      0.266391
     21 C8          6.2220   -0.6680   -0.1600 c         1 MOL      0.616675
     22 O5          5.2890   -0.2800    0.4940 o         1 MOL     -0.550247
     23 C9          8.4550   -0.6580    1.1850 c3        1 MOL     -0.449452
     24 H8          7.1920   -2.2890    2.4490 hn        1 MOL      0.301443
     25 H9          7.7790   -2.1070   -0.2960 h1        1 MOL      0.049369
     26 H10         8.1390    0.0970    1.9070 hc        1 MOL      0.114803
     27 H11         9.1460   -1.3450    1.6640 hc        1 MOL      0.114803
     28 H12         9.1240   -0.2700    0.4210 hc        1 MOL      0.114803
     29 N3          6.3230   -0.4570   -1.4310 n         1 MOL     -0.759738
     30 C10         5.2000   -0.1060   -2.3510 c3        1 MOL      0.269405
     31 C11         5.4690    1.0580   -3.3120 c         1 MOL      0.337487
     32 O6          4.7430    1.2880   -4.3430 o         1 MOL     -0.455607
     33 C12         4.7130   -1.3450   -3.0360 c3        1 MOL     -0.352283
     34 C13         5.8260   -2.0810   -3.7350 c         1 MOL      0.802194
     35 O7          5.5970   -3.3210   -4.0010 o         1 MOL     -0.747216
     36 O8          6.8870   -1.5380   -4.0480 o         1 MOL     -0.747216
     37 H13         7.1650   -0.8450   -1.8400 hn        1 MOL      0.341380
     38 H14         4.3590    0.2910   -1.7860 h1        1 MOL      0.063559
     39 H15         3.9870   -1.0670   -3.8110 hc        1 MOL      0.078785
     40 H16         4.3120   -2.0130   -2.2790 hc        1 MOL      0.078785
     41 N4          6.4460    1.8870   -3.0200 n         1 MOL     -0.162142
     42 C14         6.6950    3.2060   -3.6000 c3        1 MOL     -0.426470
     43 C15         5.6060    4.2370   -3.6560 c         1 MOL      0.603034
     44 O9          5.9230    5.1900   -4.3640 o         1 MOL     -0.551062
     45 H17         7.0520    1.7030   -2.2330 hn        1 MOL      0.225795
     46 H18         6.9040    3.0550   -4.6500 h1        1 MOL      0.174082
     47 H19         7.6340    3.5450   -3.1460 h1        1 MOL      0.174082
     48 N5          4.4230    4.1370   -2.9770 n         1 MOL     -0.366552
     49 C16         3.4650    5.1910   -2.8800 c3        1 MOL      0.224477
     50 C17         3.2660    5.7970   -1.4820 c         1 MOL      0.493998
     51 O10         3.3330    7.0510   -1.4090 o         1 MOL     -0.527612
     52 C18         2.1010    4.6870   -3.4090 c3        1 MOL     -0.119771
     53 C19         2.0220    4.0980   -4.8400 c         1 MOL      0.496307
     54 N6          2.4890    4.8680   -5.8320 n         1 MOL     -0.662695
     55 O11         1.6840    2.9390   -4.9670 o         1 MOL     -0.493628
     56 H20         4.2050    3.3490   -2.3930 hn        1 MOL      0.198537
     57 H21         3.7870    6.0350   -3.4920 h1        1 MOL      0.009016
     58 H22         1.3430    5.4600   -3.2980 hc        1 MOL      0.034235
     59 H23         1.7950    3.8540   -2.7590 hc        1 MOL      0.034235
     60 H24         2.6320    5.8620   -5.7010 hn        1 MOL      0.331540
     61 H25         2.3930    4.4210   -6.7280 hn        1 MOL      0.331540
     62 N7          3.0900    5.0330   -0.3980 n         1 MOL     -0.613408
     63 C20         3.1070    5.4910    0.9970 c3        1 MOL      0.104008
     64 C21         1.7060    6.0410    1.2520 c         1 MOL      0.447637
     65 O12         0.7810    6.0990    0.4130 o         1 MOL     -0.458903
     66 H26         2.9020    4.0440   -0.4800 hn        1 MOL      0.374377
     67 H27         3.9170    6.2110    1.1380 h1        1 MOL      0.071033
     68 H28         3.4270    4.7180    1.6880 h1        1 MOL      0.071033
     69 N8          1.4430    6.3370    2.4780 n         1 MOL     -0.319855
     70 C22         0.1500    6.6580    3.0230 c3        1 MOL     -0.168453
     71 C23        -0.8590    5.5970    3.1990 c         1 MOL      0.520041
     72 O13        -2.0690    5.8770    3.3000 o         1 MOL     -0.579598
     73 C24         0.2330    7.4660    4.3210 c3        1 MOL      0.542215
     74 C25         0.5780    6.5930    5.5590 c3        1 MOL     -0.271542
     75 O14         1.0370    8.5420    4.2010 oh        1 MOL     -0.634155
     76 H29         2.3100    6.4850    2.9900 hn        1 MOL      0.183449
     77 H30        -0.3270    7.3830    2.3640 h1        1 MOL      0.117192
     78 H31        -0.7660    7.8430    4.5190 h1        1 MOL     -0.008053
     79 H32         1.9170    8.1610    4.1320 ho        1 MOL      0.377637
     80 H33        -0.3370    6.4750    6.1490 hc        1 MOL      0.048863
     81 H34         0.9450    5.6110    5.2930 hc        1 MOL      0.048863
     82 H35         1.2870    7.1590    6.1720 hc        1 MOL      0.048863
     83 N9         -0.3980    4.3300    3.1820 n         1 MOL     -0.236771
     84 C26        -1.2780    3.2050    3.2450 c3        1 MOL     -0.124443
     85 C27        -0.8640    2.0190    2.3780 c         1 MOL      0.444436
     86 O15         0.3170    1.7600    1.9880 o         1 MOL     -0.487361
     87 C28        -1.3130    2.6390    4.7110 c3        1 MOL     -0.023866
     88 C29        -2.0590    3.5920    5.7080 c3        1 MOL      0.046105
     89 C30        -1.8440    1.2310    4.8540 c3        1 MOL     -0.068609
     90 C31        -1.9120    3.1700    7.2130 c3        1 MOL     -0.287878
     91 H36         0.6110    4.2950    3.1110 hn        1 MOL      0.190928
     92 H37        -2.2830    3.5460    2.9960 h1        1 MOL      0.120893
     93 H38        -0.2590    2.5180    4.9830 hc        1 MOL      0.072950
     94 H39        -3.1140    3.7120    5.4610 hc        1 MOL      0.032393
     95 H40        -1.5870    4.5750    5.7150 hc        1 MOL      0.032393
     96 H41        -2.2150    0.9720    5.8450 hc        1 MOL      0.018386
     97 H42        -2.8020    1.0240    4.3750 hc        1 MOL      0.018386
     98 H43        -1.1730    0.4560    4.4930 hc        1 MOL      0.018386
     99 H44        -0.8440    3.0200    7.3850 hc        1 MOL      0.069437
    100 H45        -2.2810    3.9920    7.8250 hc        1 MOL      0.069437
    101 H46        -2.4860    2.2510    7.3320 hc        1 MOL      0.069437
    102 N10        -1.8440    1.2610    1.8660 n         1 MOL     -0.294356
    103 C32        -1.7920    0.2450    0.7690 c3        1 MOL      0.137805
    104 C33        -3.0810    0.0960   -0.0860 c         1 MOL      0.528294
    105 O16        -3.3880   -0.9530   -0.6020 o         1 MOL     -0.441298
    106 C34        -1.3310   -1.0560    1.5280 c3        1 MOL     -0.338794
    107 C35        -1.0150   -2.2610    0.6830 c         1 MOL      0.743156
    108 O17        -1.1460   -3.3830    1.1370 o         1 MOL     -0.704361
    109 O18        -0.6060   -2.1020   -0.5390 o         1 MOL     -0.704361
    110 H47        -2.7530    1.5730    2.1590 hn        1 MOL      0.183721
    111 H48        -1.0240    0.6310    0.1080 h1        1 MOL      0.053198
    112 H49        -2.1190   -1.3160    2.2370 hc        1 MOL      0.116320
    113 H50        -0.4120   -0.8950    2.0850 hc        1 MOL      0.116320
    114 N11        -3.8460    1.1930   -0.2170 n         1 MOL     -0.511885
    115 C36        -4.9630    1.3020   -1.1360 c3        1 MOL      0.362765
    116 C37        -6.0710    0.2450   -0.6580 c         1 MOL      0.127736
    117 O19        -6.3500    0.1330    0.5440 o         1 MOL     -0.430082
    118 C38        -5.5340    2.7270   -0.9960 c3        1 MOL     -0.387630
    119 C39        -6.7100    3.0000   -1.9260 ca        1 MOL      0.176703
    120 C40        -6.4280    3.7180   -3.1520 ca        1 MOL     -0.219707
    121 C41        -7.9960    2.5230   -1.6680 ca        1 MOL     -0.219707
    122 C42        -7.4260    3.9100   -4.1140 ca        1 MOL     -0.076966
    123 C43        -9.0050    2.7040   -2.6060 ca        1 MOL     -0.076966
    124 C44        -8.6950    3.3180   -3.8580 ca        1 MOL     -0.157922
    125 H51        -3.5080    2.0770    0.1470 hn        1 MOL      0.242952
    126 H52        -4.5830    1.2230   -2.1600 h1        1 MOL      0.012884
    127 H53        -4.7290    3.4450   -1.1950 hc        1 MOL      0.139569
    128 H54        -5.9790    2.7960    0.0020 hc        1 MOL      0.139569
    129 H55        -5.4040    3.9160   -3.4300 ha        1 MOL      0.150092
    130 H56        -8.3270    2.0940   -0.7360 ha        1 MOL      0.150092
    131 H57        -7.3320    4.3640   -5.0830 ha        1 MOL      0.111680
    132 H58       -10.0130    2.3840   -2.3840 ha        1 MOL      0.111680
    133 H59        -9.4790    3.3270   -4.6050 ha        1 MOL      0.102614
    134 N12        -6.7310   -0.4360   -1.6300 n         1 MOL     -0.167496
    135 C45        -7.9360   -1.2260   -1.4100 c3        1 MOL      0.258363
    136 C46        -7.7920   -2.4150   -0.4840 c         1 MOL      0.047702
    137 O20        -8.7980   -2.9520    0.0600 o         1 MOL     -0.478669
    138 C47        -8.2620   -1.7970   -2.7770 c3        1 MOL     -0.007939
    139 C48        -7.8930   -0.6830   -3.7410 c3        1 MOL     -0.158860
    140 C49        -6.6030   -0.2540   -3.0690 c3        1 MOL      0.080782
    141 H60        -8.8010   -0.6080   -1.1670 h1        1 MOL      0.057083
    142 H61        -7.6820   -2.6650   -3.0870 hc        1 MOL      0.026221
    143 H62        -9.3350   -1.9650   -2.8870 hc        1 MOL      0.026221
    144 H63        -7.5840   -1.0370   -4.7210 hc        1 MOL      0.053056
    145 H64        -8.6970    0.0540   -3.7190 hc        1 MOL      0.053056
    146 H65        -5.7650   -0.8660   -3.4230 h1        1 MOL      0.033483
    147 H66        -6.4570    0.7680   -3.4020 h1        1 MOL      0.033483
    148 N13        -6.6130   -2.9690   -0.3190 n         1 MOL     -0.023129
    149 C50        -6.3810   -4.1470    0.5590 c3        1 MOL     -0.172865
    150 C51        -6.6680   -3.8630    2.0300 c         1 MOL      0.594021
    151 O21        -7.2560   -4.6460    2.7180 o         1 MOL     -0.569140
    152 C52        -4.8820   -4.4570    0.3400 c3        1 MOL      0.159829
    153 C53        -4.6010   -5.2290   -0.9440 c3        1 MOL     -0.026402
    154 C54        -3.0750   -5.2880   -1.2130 c         1 MOL      0.620693
    155 O22        -2.4200   -5.9780   -0.4150 o         1 MOL     -0.706662
    156 O23        -2.5670   -4.4330   -1.9460 o         1 MOL     -0.706662
    157 H67        -5.8420   -2.7070   -0.9190 hn        1 MOL      0.213872
    158 H68        -7.0510   -4.9530    0.3000 h1        1 MOL      0.103792
    159 H69        -4.4690   -5.1060    1.1140 hc        1 MOL     -0.028935
    160 H70        -4.2990   -3.5400    0.3930 hc        1 MOL     -0.028935
    161 H71        -5.1250   -4.7900   -1.8050 hc        1 MOL     -0.036816
    162 H72        -5.0330   -6.2220   -0.8370 hc        1 MOL     -0.036816
    163 N14        -6.2040   -2.7080    2.4490 n         1 MOL     -0.274942
    164 C55        -6.1420   -2.4490    3.8390 c3        1 MOL     -0.276681
    165 H73        -6.9930   -2.9180    4.3340 h1        1 MOL      0.109225
    166 H74        -5.2170   -2.8580    4.2450 h1        1 MOL      0.109225
    167 H75        -6.1710   -1.3730    4.0120 h1        1 MOL      0.109225
    168 H76        -5.6850   -2.2080    1.7350 hn        1 MOL      0.277478
    169 Ca1        -0.1020   -4.7790   -0.8520 Ca        1 MOL      1.784637
    170 O24         0.7180   -5.7790    1.3840 oh        1 MOL     -0.899103
    171 H77         0.4620   -6.3020    2.1480 ho        1 MOL      0.438896
    172 H78         1.6670   -5.9050    1.3110 ho        1 MOL      0.438896
    173 O25        -0.3860   -6.6310   -2.8270 oh        1 MOL     -0.899103
    174 H79        -0.8180   -7.4530   -2.5660 ho        1 MOL      0.438896
    175 H80        -0.0150   -6.8180   -3.6860 ho        1 MOL      0.438896
    176 O26         0.6540   -3.7520   -3.3020 oh        1 MOL     -0.899103
    177 H81         0.6400   -2.8320   -3.5440 ho        1 MOL      0.438896
    178 H82         0.8830   -4.2090   -4.1050 ho        1 MOL      0.438896
    179 O27         2.2080   -3.7250    0.1810 oh        1 MOL     -0.899103
    180 H83         2.3570   -2.7790    0.2940 ho        1 MOL      0.438896
    181 H84         3.0530   -4.0720   -0.0910 ho        1 MOL      0.438896
    182 O28         1.7840   -6.4470   -1.3470 oh        1 MOL     -0.899103
    183 H85         2.6160   -6.8480   -1.1270 ho        1 MOL      0.438896
    184 H86         1.5650   -6.8120   -2.2100 ho        1 MOL      0.438896
@<TRIPOS>BOND
     1    1    2 1   
     2    1    4 1   
     3    1    5 1   
     4    1    6 1   
     5    2    3 2   
     6    2    7 1   
     7    7    8 1   
     8    7   15 1   
     9    8    9 1   
    10    8   11 1   
    11    8   16 1   
    12    9   10 2   
    13    9   19 1   
    14   11   12 1   
    15   11   17 1   
    16   11   18 1   
    17   12   13 1   
    18   12   14 1   
    19   19   20 1   
    20   19   24 1   
    21   20   21 1   
    22   20   23 1   
    23   20   25 1   
    24   21   22 2   
    25   21   29 1   
    26   23   26 1   
    27   23   27 1   
    28   23   28 1   
    29   29   30 1   
    30   29   37 1   
    31   30   31 1   
    32   30   33 1   
    33   30   38 1   
    34   31   32 2   
    35   31   41 1   
    36   33   34 1   
    37   33   39 1   
    38   33   40 1   
    39   34   35 1   
    40   34   36 1   
    41   41   42 1   
    42   41   45 1   
    43   42   43 1   
    44   42   46 1   
    45   42   47 1   
    46   43   44 2   
    47   43   48 1   
    48   48   49 1   
    49   48   56 1   
    50   49   50 1   
    51   49   52 1   
    52   49   57 1   
    53   50   51 2   
    54   50   62 1   
    55   52   53 1   
    56   52   58 1   
    57   52   59 1   
    58   53   54 1   
    59   53   55 2   
    60   54   60 1   
    61   54   61 1   
    62   62   63 1   
    63   62   66 1   
    64   63   64 1   
    65   63   67 1   
    66   63   68 1   
    67   64   65 2   
    68   64   69 1   
    69   69   70 1   
    70   69   76 1   
    71   70   71 1   
    72   70   73 1   
    73   70   77 1   
    74   71   72 2   
    75   71   83 1   
    76   73   74 1   
    77   73   75 1   
    78   73   78 1   
    79   74   80 1   
    80   74   81 1   
    81   74   82 1   
    82   75   79 1   
    83   83   84 1   
    84   83   91 1   
    85   84   85 1   
    86   84   87 1   
    87   84   92 1   
    88   85   86 2   
    89   85  102 1   
    90   87   88 1   
    91   87   89 1   
    92   87   93 1   
    93   88   90 1   
    94   88   94 1   
    95   88   95 1   
    96   89   96 1   
    97   89   97 1   
    98   89   98 1   
    99   90   99 1   
   100   90  100 1   
   101   90  101 1   
   102  102  103 1   
   103  102  110 1   
   104  103  104 1   
   105  103  106 1   
   106  103  111 1   
   107  104  105 2   
   108  104  114 1   
   109  106  107 1   
   110  106  112 1   
   111  106  113 1   
   112  107  108 1   
   113  107  109 1   
   114  114  115 1   
   115  114  125 1   
   116  115  116 1   
   117  115  118 1   
   118  115  126 1   
   119  116  117 2   
   120  116  134 1   
   121  118  119 1   
   122  118  127 1   
   123  118  128 1   
   124  119  120 ar  
   125  119  121 ar  
   126  120  122 ar  
   127  120  129 1   
   128  121  123 ar  
   129  121  130 1   
   130  122  124 ar  
   131  122  131 1   
   132  123  124 ar  
   133  123  132 1   
   134  124  133 1   
   135  134  135 1   
   136  134  140 1   
   137  135  136 1   
   138  135  138 1   
   139  135  141 1   
   140  136  137 2   
   141  136  148 1   
   142  138  139 1   
   143  138  142 1   
   144  138  143 1   
   145  139  140 1   
   146  139  144 1   
   147  139  145 1   
   148  140  146 1   
   149  140  147 1   
   150  148  149 1   
   151  148  157 1   
   152  149  150 1   
   153  149  152 1   
   154  149  158 1   
   155  150  151 2   
   156  150  163 1   
   157  152  153 1   
   158  152  159 1   
   159  152  160 1   
   160  153  154 1   
   161  153  161 1   
   162  153  162 1   
   163  154  155 1   
   164  154  156 1   
   165  163  164 1   
   166  163  168 1   
   167  164  165 1   
   168  164  166 1   
   169  164  167 1   
   170  170  171 1   
   171  170  172 1   
   172  173  174 1   
   173  173  175 1   
   174  176  177 1   
   175  176  178 1   
   176  179  180 1   
   177  179  181 1   
   178  182  183 1   
   179  182  184 1   
@<TRIPOS>SUBSTRUCTURE
     1 MOL         1 TEMP              0 ****  ****    0 ROOT
