@<TRIPOS>MOLECULE
MOL
  182   178     1     0     0
SMALL
resp


@<TRIPOS>ATOM
      1 C1          1.0010   -4.8640    5.7790 c3        1 MOL     -0.356832
      2 C2          1.2700   -4.7460    4.2450 c         1 MOL      0.740026
      3 O1          0.4420   -5.2350    3.4740 o         1 MOL     -0.577272
      4 H1          0.2900   -5.6710    5.9610 hc        1 MOL      0.095612
      5 H2          1.9360   -5.0800    6.2970 hc        1 MOL      0.095612
      6 H3          0.5880   -3.9260    6.1500 hc        1 MOL      0.095612
      7 N1          2.3900   -4.0660    3.8710 n         1 MOL     -0.586491
      8 C3          2.7210   -3.5670    2.5720 c3        1 MOL     -0.076323
      9 C4          3.2220   -4.6310    1.6520 c         1 MOL      0.682416
     10 O2          4.1870   -5.3750    1.8910 o         1 MOL     -0.583899
     11 C5          3.5870   -2.3660    2.7380 c3        1 MOL     -0.108677
     12 C6          3.7410   -1.5250    1.5080 c         1 MOL      0.391002
     13 O3          4.0380   -0.2900    1.6370 o         1 MOL     -0.610851
     14 O4          3.4230   -1.9340    0.3570 o         1 MOL     -0.610851
     15 H4          2.9150   -3.7390    4.6740 hn        1 MOL      0.307314
     16 H5          1.8080   -3.2510    2.0820 h1        1 MOL      0.043703
     17 H6          4.5360   -2.8520    2.9340 hc        1 MOL      0.091322
     18 H7          3.2310   -1.7280    3.5510 hc        1 MOL      0.091322
     19 N2          2.6490   -4.7140    0.4980 n         1 MOL     -0.348074
     20 C7          3.0480   -5.6240   -0.6420 c3        1 MOL      0.044238
     21 C8          4.3490   -5.2230   -1.3250 c         1 MOL      0.526510
     22 O5          5.0600   -6.1090   -1.7640 o         1 MOL     -0.558711
     23 C9          1.8510   -5.8040   -1.5440 c3        1 MOL     -0.084726
     24 C10         1.6100   -4.7540   -2.5890 c3        1 MOL      0.129143
     25 C11         0.3680   -4.8330   -3.4120 c3        1 MOL     -0.068754
     26 C12        -0.8950   -4.9450   -2.4920 c3        1 MOL      0.154590
     27 N3         -1.9340   -5.7660   -3.1120 n4        1 MOL     -0.375558
     28 H8          1.9550   -4.0500    0.1940 hn        1 MOL      0.107305
     29 H9          3.2570   -6.5930   -0.1950 h1        1 MOL      0.096153
     30 H10         0.9840   -5.9880   -0.9040 hc        1 MOL      0.023507
     31 H11         2.0660   -6.7060   -2.1240 hc        1 MOL      0.023507
     32 H12         2.4620   -4.8280   -3.2710 hc        1 MOL      0.001723
     33 H13         1.6830   -3.7690   -2.1280 hc        1 MOL      0.001723
     34 H14         0.3350   -5.6810   -4.0850 hc        1 MOL      0.013537
     35 H15         0.2960   -3.8820   -3.9520 hc        1 MOL      0.013537
     36 H16        -1.2530   -3.9250   -2.3520 hx        1 MOL      0.053124
     37 H17        -0.6230   -5.4800   -1.5850 hx        1 MOL      0.053124
     38 H18        -1.6430   -6.7340   -3.2090 hn        1 MOL      0.291067
     39 H19        -2.7210   -5.7350   -2.4840 hn        1 MOL      0.291067
     40 H20        -2.2380   -5.4840   -4.0340 hn        1 MOL      0.291067
     41 N4          4.7400   -3.9680   -1.3640 n         1 MOL     -0.431555
     42 C13         5.9580   -3.5100   -2.0460 c3        1 MOL      0.106278
     43 C14         6.9790   -2.7670   -1.1370 c         1 MOL      0.362908
     44 O6          8.0970   -2.4140   -1.5540 o         1 MOL     -0.507260
     45 C15         5.6200   -2.6000   -3.2610 c3        1 MOL     -0.513811
     46 C16         4.5340   -1.6070   -2.9610 c         1 MOL      0.896366
     47 O7          4.7570   -0.7790   -2.1010 o         1 MOL     -0.792885
     48 O8          3.4220   -1.6090   -3.5510 o         1 MOL     -0.792885
     49 H21         4.1370   -3.2790   -0.9270 hn        1 MOL      0.381285
     50 H22         6.5290   -4.3570   -2.4220 h1        1 MOL      0.118120
     51 H23         5.3370   -3.1320   -4.1690 hc        1 MOL      0.153858
     52 H24         6.5480   -2.0760   -3.5060 hc        1 MOL      0.153858
     53 N5          6.4500   -2.4260    0.0650 n         1 MOL     -0.114581
     54 C17         7.2160   -1.5450    1.0230 c3        1 MOL     -0.159963
     55 C18         7.0310   -0.0600    0.8310 c         1 MOL      0.685053
     56 O9          7.0220    0.6300    1.8460 o         1 MOL     -0.566037
     57 H25         5.5500   -2.7510    0.3910 hn        1 MOL      0.122662
     58 H26         8.2830   -1.6380    0.8560 h1        1 MOL      0.097906
     59 H27         6.8790   -1.8260    2.0260 h1        1 MOL      0.097906
     60 N6          6.8010    0.4970   -0.3320 n         1 MOL     -0.608934
     61 C19         6.9330    1.9270   -0.5930 c3        1 MOL      0.376368
     62 C20         5.7630    2.7780   -0.2000 c         1 MOL      0.262224
     63 O10         4.6000    2.2900   -0.2390 o         1 MOL     -0.346662
     64 C21         7.2150    2.0290   -2.1060 c3        1 MOL     -0.235043
     65 C22         8.0490    3.2150   -2.4700 c         1 MOL      0.570199
     66 N7          8.3650    3.3080   -3.7670 n         1 MOL     -0.715194
     67 O11         8.6080    3.9740   -1.7070 o         1 MOL     -0.505269
     68 H28         6.5500   -0.0870   -1.1170 hn        1 MOL      0.291393
     69 H29         7.7620    2.3000    0.0010 h1        1 MOL      0.012951
     70 H30         6.2390    2.0510   -2.5950 hc        1 MOL      0.072940
     71 H31         7.7510    1.1390   -2.4390 hc        1 MOL      0.072940
     72 H32         7.7620    2.8210   -4.4150 hn        1 MOL      0.340315
     73 H33         8.9050    4.1150   -4.0350 hn        1 MOL      0.340315
     74 N8          5.9960    4.0780    0.1350 n         1 MOL     -0.222764
     75 C23         5.0410    5.1630    0.0010 c3        1 MOL     -0.229066
     76 C24         3.8750    4.9780    1.0040 c         1 MOL      0.614620
     77 O12         4.1140    4.7300    2.2100 o         1 MOL     -0.501511
     78 H34         6.9870    4.2360    0.1980 hn        1 MOL      0.247408
     79 H35         4.6970    5.2310   -1.0340 h1        1 MOL      0.102981
     80 H36         5.4900    6.1330    0.1920 h1        1 MOL      0.102981
     81 N9          2.6290    4.9330    0.5450 n         1 MOL     -0.569873
     82 C25         1.4190    4.5420    1.3110 c3        1 MOL     -0.017857
     83 C26         1.2840    2.9940    1.5670 c         1 MOL      0.772899
     84 O13         1.9360    2.2230    0.8410 o         1 MOL     -0.639053
     85 C27         0.1090    4.9480    0.6480 c3        1 MOL     -0.195513
     86 C28        -0.0150    6.3450    0.1780 ca        1 MOL      0.100281
     87 C29         0.0480    7.4370    1.1070 ca        1 MOL     -0.151825
     88 C30        -0.3330    6.6400   -1.1690 ca        1 MOL     -0.151825
     89 C31        -0.1190    8.7480    0.7590 ca        1 MOL     -0.253498
     90 C32        -0.5260    7.9740   -1.5300 ca        1 MOL     -0.253498
     91 C33        -0.4150    9.0390   -0.5850 ca        1 MOL      0.320238
     92 O14        -0.6520   10.3370   -0.9330 oh        1 MOL     -0.474971
     93 H37         2.4630    5.0810   -0.4330 hn        1 MOL      0.326473
     94 H38         1.5140    5.0340    2.2720 h1        1 MOL      0.093995
     95 H39        -0.8370    4.6930    1.1220 hc        1 MOL      0.071952
     96 H40         0.1240    4.3030   -0.2230 hc        1 MOL      0.071952
     97 H41         0.3890    7.2840    2.1290 ha        1 MOL      0.133994
     98 H42        -0.4060    5.8940   -1.9350 ha        1 MOL      0.133994
     99 H43        -0.0210    9.5230    1.5090 ha        1 MOL      0.156360
    100 H44        -0.7100    8.2310   -2.5560 ha        1 MOL      0.156360
    101 H45        -0.2550   10.8840   -0.2510 ho        1 MOL      0.370979
    102 N10         0.3650    2.5830    2.4130 n         1 MOL     -0.639611
    103 C34        -0.0240    1.2490    2.8240 c3        1 MOL      0.043506
    104 C35        -0.2270    0.2250    1.6960 c         1 MOL      0.439764
    105 O15         0.7580   -0.0780    0.9840 o         1 MOL     -0.394984
    106 C36         0.8020    0.6660    3.9790 c3        1 MOL      0.130946
    107 C37         0.4390   -0.7640    4.5010 c3        1 MOL     -0.235223
    108 C38         0.9260    1.6430    5.1640 c3        1 MOL     -0.180667
    109 C39        -0.9690   -1.0650    5.0300 c3        1 MOL     -0.066790
    110 H46         0.0030    3.3740    2.9380 hn        1 MOL      0.323778
    111 H47        -0.9860    1.3990    3.3020 h1        1 MOL      0.078039
    112 H48         1.8380    0.5730    3.6650 hc        1 MOL      0.063213
    113 H49         1.1260   -1.0800    5.2820 hc        1 MOL      0.115592
    114 H50         0.4380   -1.4770    3.6750 hc        1 MOL      0.115592
    115 H51         1.3510    2.5800    4.8150 hc        1 MOL      0.055740
    116 H52        -0.0100    1.9400    5.6410 hc        1 MOL      0.055740
    117 H53         1.6030    1.2930    5.9530 hc        1 MOL      0.055740
    118 H54        -1.7290   -0.8050    4.2870 hc        1 MOL      0.018357
    119 H55        -1.0060   -2.1170    5.3190 hc        1 MOL      0.018357
    120 H56        -1.2080   -0.4940    5.9270 hc        1 MOL      0.018357
    121 N11        -1.4010   -0.3000    1.4620 n         1 MOL     -0.415848
    122 C40        -1.8460   -1.2870    0.3720 c3        1 MOL      0.025316
    123 C41        -3.3350   -1.3140    0.2140 c         1 MOL      0.514347
    124 O16        -3.8600   -2.3120   -0.3220 o         1 MOL     -0.536657
    125 C42        -1.3150   -2.6880    0.7580 c3        1 MOL      0.055340
    126 O17        -0.0220   -2.7510    0.2290 oh        1 MOL     -0.366782
    127 H57        -2.0920   -0.0790    2.1620 hn        1 MOL      0.276067
    128 H58        -1.4150   -0.9100   -0.5530 h1        1 MOL      0.075234
    129 H59        -1.8530   -3.4480    0.2090 h1        1 MOL      0.058055
    130 H60        -1.3710   -2.8550    1.8350 h1        1 MOL      0.058055
    131 H61         0.4250   -1.9090    0.3630 ho        1 MOL      0.238619
    132 N12        -4.1090   -0.2720    0.4580 n         1 MOL     -0.454765
    133 C43        -5.5810   -0.1260    0.2370 c3        1 MOL      0.204219
    134 C44        -5.9140    0.6700   -1.0520 c         1 MOL      0.576159
    135 O18        -5.1550    1.6110   -1.3650 o         1 MOL     -0.570898
    136 C45        -6.3790    0.3070    1.5370 c3        1 MOL     -0.391102
    137 H62        -3.7120    0.5470    0.8980 hn        1 MOL      0.235271
    138 H63        -5.9330   -1.1580    0.1700 h1        1 MOL      0.094099
    139 H64        -6.1590    1.3600    1.7180 hc        1 MOL      0.123488
    140 H65        -7.4620    0.1620    1.5520 hc        1 MOL      0.123488
    141 H66        -5.9960   -0.2760    2.3770 hc        1 MOL      0.123488
    142 N13        -6.9640    0.4450   -1.8440 n         1 MOL     -0.638039
    143 C46        -8.0510   -0.5630   -1.5990 c3        1 MOL      0.291133
    144 C47        -9.2620   -0.0090   -2.3240 c         1 MOL      0.284354
    145 O19        -9.2740    0.1450   -3.5620 o         1 MOL     -0.529439
    146 C48        -7.6810   -1.8880   -2.1430 c3        1 MOL     -0.125135
    147 H67        -7.2540    1.1230   -2.5260 hn        1 MOL      0.365084
    148 H68        -8.2810   -0.6510   -0.5330 h1        1 MOL     -0.027766
    149 H69        -8.4900   -2.6060   -2.0510 hc        1 MOL      0.045552
    150 H70        -7.4580   -1.7820   -3.2090 hc        1 MOL      0.045552
    151 H71        -6.8380   -2.3540   -1.6390 hc        1 MOL      0.045552
    152 N14       -10.4150    0.1110   -1.7230 n         1 MOL     -0.126444
    153 C49       -10.8400   -0.1430   -0.3370 c3        1 MOL     -0.460487
    154 C50       -10.3500    0.8690    0.6790 c         1 MOL      0.470795
    155 O20       -10.2310    0.5920    1.8980 o         1 MOL     -0.507129
    156 C51       -12.3950   -0.3050   -0.1860 c3        1 MOL      0.452514
    157 C52       -13.0910   -1.4040   -0.9920 c3        1 MOL     -0.283315
    158 C53       -14.5720   -1.4650   -0.4940 c         1 MOL      0.702789
    159 O21       -15.2650   -0.4640   -0.7650 o         1 MOL     -0.669663
    160 O22       -14.8860   -2.3520    0.2780 o         1 MOL     -0.669663
    161 H72       -11.1100    0.3720   -2.4060 hn        1 MOL      0.266116
    162 H73       -10.3860   -1.0970   -0.0660 h1        1 MOL      0.169933
    163 H74       -12.7550    0.6690   -0.4930 hc        1 MOL     -0.045090
    164 H75       -12.6820   -0.3070    0.8650 hc        1 MOL     -0.045090
    165 H76       -12.5680   -2.3250   -0.7510 hc        1 MOL      0.010479
    166 H77       -13.1130   -1.1670   -2.0570 hc        1 MOL      0.010479
    167 N15        -9.9820    2.0800    0.1800 n         1 MOL     -0.206588
    168 C54        -9.4320    3.1100    1.0440 c3        1 MOL     -0.266177
    169 H78        -8.5750    3.5740    0.5540 h1        1 MOL      0.112548
    170 H79       -10.1920    3.8670    1.2380 h1        1 MOL      0.112548
    171 H80        -9.1140    2.6640    1.9860 h1        1 MOL      0.112548
    172 H81       -10.1010    2.2850   -0.8090 hn        1 MOL      0.225938
    173 Ca1         2.9060    0.4660   -0.7460 Ca        1 MOL      1.692871
    174 O23         1.2830   -1.3850   -2.2150 oh        1 MOL     -0.802810
    175 H82         0.5560   -1.2500   -2.8370 ho        1 MOL      0.397868
    176 H83         2.0470   -1.5070   -2.7800 ho        1 MOL      0.397868
    177 O24         0.8120    1.5350   -2.1000 oh        1 MOL     -0.802810
    178 H84        -0.1070    1.3610   -1.9020 ho        1 MOL      0.397868
    179 H85         0.7870    2.0250   -2.9240 ho        1 MOL      0.397868
    180 O25         3.4300    2.3470   -2.8150 oh        1 MOL     -0.802810
    181 H86         3.6810    1.8970   -3.6260 ho        1 MOL      0.397868
    182 H87         3.6100    3.2680   -2.9880 ho        1 MOL      0.397868
@<TRIPOS>BOND
     1    1    2 1   
     2    1    4 1   
     3    1    5 1   
     4    1    6 1   
     5    2    3 2   
     6    2    7 1   
     7    7    8 1   
     8    7   15 1   
     9    8    9 1   
    10    8   11 1   
    11    8   16 1   
    12    9   10 2   
    13    9   19 1   
    14   11   12 1   
    15   11   17 1   
    16   11   18 1   
    17   12   13 1   
    18   12   14 1   
    19   19   20 1   
    20   19   28 1   
    21   20   21 1   
    22   20   23 1   
    23   20   29 1   
    24   21   22 2   
    25   21   41 1   
    26   23   24 1   
    27   23   30 1   
    28   23   31 1   
    29   24   25 1   
    30   24   32 1   
    31   24   33 1   
    32   25   26 1   
    33   25   34 1   
    34   25   35 1   
    35   26   27 1   
    36   26   36 1   
    37   26   37 1   
    38   27   38 1   
    39   27   39 1   
    40   27   40 1   
    41   41   42 1   
    42   41   49 1   
    43   42   43 1   
    44   42   45 1   
    45   42   50 1   
    46   43   44 2   
    47   43   53 1   
    48   45   46 1   
    49   45   51 1   
    50   45   52 1   
    51   46   47 1   
    52   46   48 1   
    53   53   54 1   
    54   53   57 1   
    55   54   55 1   
    56   54   58 1   
    57   54   59 1   
    58   55   56 2   
    59   55   60 1   
    60   60   61 1   
    61   60   68 1   
    62   61   62 1   
    63   61   64 1   
    64   61   69 1   
    65   62   63 2   
    66   62   74 1   
    67   64   65 1   
    68   64   70 1   
    69   64   71 1   
    70   65   66 1   
    71   65   67 2   
    72   66   72 1   
    73   66   73 1   
    74   74   75 1   
    75   74   78 1   
    76   75   76 1   
    77   75   79 1   
    78   75   80 1   
    79   76   77 2   
    80   76   81 1   
    81   81   82 1   
    82   81   93 1   
    83   82   83 1   
    84   82   85 1   
    85   82   94 1   
    86   83   84 2   
    87   83  102 1   
    88   85   86 1   
    89   85   95 1   
    90   85   96 1   
    91   86   87 ar  
    92   86   88 ar  
    93   87   89 ar  
    94   87   97 1   
    95   88   90 ar  
    96   88   98 1   
    97   89   91 ar  
    98   89   99 1   
    99   90   91 ar  
   100   90  100 1   
   101   91   92 1   
   102   92  101 1   
   103  102  103 1   
   104  102  110 1   
   105  103  104 1   
   106  103  106 1   
   107  103  111 1   
   108  104  105 2   
   109  104  121 1   
   110  106  107 1   
   111  106  108 1   
   112  106  112 1   
   113  107  109 1   
   114  107  113 1   
   115  107  114 1   
   116  108  115 1   
   117  108  116 1   
   118  108  117 1   
   119  109  118 1   
   120  109  119 1   
   121  109  120 1   
   122  121  122 1   
   123  121  127 1   
   124  122  123 1   
   125  122  125 1   
   126  122  128 1   
   127  123  124 2   
   128  123  132 1   
   129  125  126 1   
   130  125  129 1   
   131  125  130 1   
   132  126  131 1   
   133  132  133 1   
   134  132  137 1   
   135  133  134 1   
   136  133  136 1   
   137  133  138 1   
   138  134  135 2   
   139  134  142 1   
   140  136  139 1   
   141  136  140 1   
   142  136  141 1   
   143  142  143 1   
   144  142  147 1   
   145  143  144 1   
   146  143  146 1   
   147  143  148 1   
   148  144  145 2   
   149  144  152 1   
   150  146  149 1   
   151  146  150 1   
   152  146  151 1   
   153  152  153 1   
   154  152  161 1   
   155  153  154 1   
   156  153  156 1   
   157  153  162 1   
   158  154  155 2   
   159  154  167 1   
   160  156  157 1   
   161  156  163 1   
   162  156  164 1   
   163  157  158 1   
   164  157  165 1   
   165  157  166 1   
   166  158  159 1   
   167  158  160 1   
   168  167  168 1   
   169  167  172 1   
   170  168  169 1   
   171  168  170 1   
   172  168  171 1   
   173  174  175 1   
   174  174  176 1   
   175  177  178 1   
   176  177  179 1   
   177  180  181 1   
   178  180  182 1   
@<TRIPOS>SUBSTRUCTURE
     1 MOL         1 TEMP              0 ****  ****    0 ROOT
