@<TRIPOS>MOLECULE
MOL
  179   176     1     0     0
SMALL
resp


@<TRIPOS>ATOM
      1 C1          0.2250   -3.8050    6.0950 c3        1 MOL     -0.337715
      2 C2          0.3660   -3.7440    4.5870 c         1 MOL      0.734071
      3 O1         -0.6330   -3.7430    3.8710 o         1 MOL     -0.588080
      4 H1         -0.1310   -4.7940    6.3860 hc        1 MOL      0.101502
      5 H2          1.1940   -3.6170    6.5590 hc        1 MOL      0.101502
      6 H3         -0.4890   -3.0500    6.4250 hc        1 MOL      0.101502
      7 N1          1.5420   -3.4940    4.0080 n         1 MOL     -0.514901
      8 C3          1.8660   -3.2500    2.6090 c3        1 MOL     -0.063308
      9 C4          2.0140   -4.5320    1.6780 c         1 MOL      0.614384
     10 O2          2.3560   -5.6700    2.1440 o         1 MOL     -0.555428
     11 C5          3.1710   -2.4350    2.6570 c3        1 MOL     -0.393256
     12 C6          3.3520   -1.6040    1.4100 c         1 MOL      0.683919
     13 O3          4.0390   -0.5420    1.4990 o         1 MOL     -0.730227
     14 O4          3.0250   -2.0600    0.2920 o         1 MOL     -0.730227
     15 H4          2.3720   -3.5060    4.6030 hn        1 MOL      0.298392
     16 H5          1.0370   -2.6550    2.2110 h1        1 MOL      0.030448
     17 H6          4.0150   -3.1200    2.7730 hc        1 MOL      0.176151
     18 H7          3.1590   -1.7640    3.5170 hc        1 MOL      0.176151
     19 N2          1.6110   -4.3970    0.4320 n         1 MOL     -0.400802
     20 C7          1.7640   -5.4670   -0.5800 c3        1 MOL      0.007164
     21 C8          3.0240   -5.4370   -1.4060 c         1 MOL      0.453091
     22 O5          3.4070   -6.4820   -1.8710 o         1 MOL     -0.535166
     23 C9          0.5860   -5.4700   -1.5030 c3        1 MOL      0.184444
     24 C10        -0.6750   -6.2090   -0.9880 c3        1 MOL     -0.343076
     25 C11        -1.7890   -6.1220   -2.0210 c3        1 MOL      0.242097
     26 C12        -2.9910   -7.0680   -1.6840 c3        1 MOL     -0.045293
     27 N3         -4.1710   -6.9290   -2.5820 n4        1 MOL     -0.343021
     28 H8          1.3360   -3.5260    0.0070 hn        1 MOL      0.369510
     29 H9          1.7530   -6.4020   -0.0220 h1        1 MOL      0.093843
     30 H10         0.9650   -5.8460   -2.4500 hc        1 MOL     -0.034794
     31 H11         0.3880   -4.4120   -1.6520 hc        1 MOL     -0.034794
     32 H12        -0.9700   -5.8460   -0.0110 hc        1 MOL      0.098538
     33 H13        -0.3710   -7.2540   -1.1190 hc        1 MOL      0.098538
     34 H14        -1.4010   -6.3960   -3.0000 hc        1 MOL     -0.013783
     35 H15        -2.1020   -5.0970   -2.2260 hc        1 MOL     -0.013783
     36 H16        -3.4520   -6.7850   -0.7430 hx        1 MOL      0.088763
     37 H17        -2.7710   -8.1320   -1.5520 hx        1 MOL      0.088763
     38 H18        -4.9010   -7.5130   -2.1930 hn        1 MOL      0.282092
     39 H19        -4.3760   -5.9480   -2.5980 hn        1 MOL      0.282092
     40 H20        -3.8970   -7.3470   -3.4640 hn        1 MOL      0.282092
     41 N4          3.5020   -4.2370   -1.5950 n         1 MOL     -0.228675
     42 C13         4.7630   -3.9410   -2.3260 c3        1 MOL      0.015973
     43 C14         6.0180   -3.5750   -1.5560 c         1 MOL      0.532374
     44 O6          7.1550   -3.6290   -1.9750 o         1 MOL     -0.569639
     45 C15         4.5670   -2.8990   -3.3970 c3        1 MOL     -0.362685
     46 C16         4.0850   -1.5500   -2.8600 c         1 MOL      0.780888
     47 O7          4.8540   -0.8800   -2.1190 o         1 MOL     -0.750179
     48 O8          2.9020   -1.1350   -3.0370 o         1 MOL     -0.750179
     49 H21         3.0000   -3.5400   -1.0600 hn        1 MOL      0.134350
     50 H22         4.9740   -4.9590   -2.6800 h1        1 MOL      0.108845
     51 H23         3.8270   -3.2860   -4.1050 hc        1 MOL      0.117636
     52 H24         5.5030   -2.6850   -3.9110 hc        1 MOL      0.117636
     53 N5          5.7650   -3.1470   -0.2980 n         1 MOL     -0.262443
     54 C17         6.8150   -2.8510    0.7110 c3        1 MOL     -0.107381
     55 C18         7.3640   -1.3840    0.6960 c         1 MOL      0.527739
     56 O9          8.2480   -1.1920    1.4630 o         1 MOL     -0.543162
     57 H25         4.8060   -2.9030   -0.1200 hn        1 MOL      0.128455
     58 H26         7.6760   -3.4850    0.5020 h1        1 MOL      0.089165
     59 H27         6.4340   -3.1200    1.7010 h1        1 MOL      0.089165
     60 N6          6.8410   -0.5470   -0.2050 n         1 MOL     -0.159132
     61 C19         7.5030    0.7490   -0.4550 c3        1 MOL     -0.057559
     62 C20         6.5180    1.9010   -0.1800 c         1 MOL      0.582417
     63 O10         5.3210    1.6070   -0.0960 o         1 MOL     -0.481785
     64 C21         7.9560    0.7900   -1.9880 c3        1 MOL     -0.287069
     65 C22         9.3000    0.0000   -2.1120 c         1 MOL      0.685104
     66 N7          9.3910   -1.2860   -2.2780 n         1 MOL     -0.796217
     67 O11        10.4120    0.5840   -2.1710 o         1 MOL     -0.599177
     68 H28         6.1710   -0.8840   -0.8730 hn        1 MOL      0.251212
     69 H29         8.3730    0.9230    0.1820 h1        1 MOL      0.072105
     70 H30         8.2160    1.7870   -2.3260 hc        1 MOL      0.077299
     71 H31         7.1810    0.2180   -2.4960 hc        1 MOL      0.077299
     72 H32         8.6070   -1.8820   -2.0730 hn        1 MOL      0.383087
     73 H33        10.3200   -1.6860   -2.3290 hn        1 MOL      0.383087
     74 N8          6.9390    3.1530   -0.1750 n         1 MOL     -0.490591
     75 C23         6.1380    4.3870   -0.3110 c3        1 MOL      0.078829
     76 C24         4.9450    4.4600    0.6300 c         1 MOL      0.471967
     77 O12         5.0980    4.3930    1.8600 o         1 MOL     -0.479417
     78 H34         7.9400    3.2690   -0.2930 hn        1 MOL      0.328027
     79 H35         5.6160    4.3830   -1.2670 h1        1 MOL      0.041477
     80 H36         6.6790    5.3330   -0.3510 h1        1 MOL      0.041477
     81 N9          3.7520    4.7240    0.0740 n         1 MOL     -0.444656
     82 C25         2.4710    4.6660    0.7180 c3        1 MOL      0.061382
     83 C26         2.0020    3.2620    1.1580 c         1 MOL      0.599436
     84 O13         2.7050    2.2760    0.9250 o         1 MOL     -0.456003
     85 C27         1.4090    5.3450   -0.1840 c3        1 MOL     -0.312402
     86 C28         1.6210    6.8290   -0.4740 ca        1 MOL      0.181354
     87 C29         1.4730    7.7800    0.5350 ca        1 MOL     -0.200983
     88 C30         1.7860    7.2810   -1.8020 ca        1 MOL     -0.200983
     89 C31         1.6460    9.1190    0.2500 ca        1 MOL     -0.217397
     90 C32         1.7660    8.6550   -2.0760 ca        1 MOL     -0.217397
     91 C33         1.7780    9.5710   -1.0250 ca        1 MOL      0.301471
     92 O14         1.8820   10.8980   -1.3250 oh        1 MOL     -0.462802
     93 H37         3.7710    4.9190   -0.9150 hn        1 MOL      0.267294
     94 H38         2.5620    5.2390    1.6350 h1        1 MOL      0.096559
     95 H39         0.4750    5.3950    0.3810 hc        1 MOL      0.088852
     96 H40         1.2820    4.8000   -1.1210 hc        1 MOL      0.088852
     97 H41         1.1140    7.5020    1.5220 ha        1 MOL      0.132078
     98 H42         1.6890    6.6370   -2.6570 ha        1 MOL      0.132078
     99 H43         1.6070    9.8270    1.0630 ha        1 MOL      0.150709
    100 H44         1.7000    9.0040   -3.0930 ha        1 MOL      0.150709
    101 H45         1.8110   11.3750   -0.4930 ho        1 MOL      0.356922
    102 N10         0.8500    3.1690    1.8970 n         1 MOL     -0.722215
    103 C34         0.1850    1.9940    2.4590 c3        1 MOL     -0.008587
    104 C35        -0.0090    0.9180    1.4590 c         1 MOL      0.559965
    105 O15         0.9550    0.2660    0.9180 o         1 MOL     -0.551761
    106 C36         1.0800    1.4020    3.5890 c3        1 MOL      0.245549
    107 C37         0.6360   -0.0290    4.1160 c3        1 MOL     -0.265646
    108 C38         1.3100    2.4440    4.6590 c3        1 MOL     -0.147559
    109 C39        -0.6700    0.1040    4.9160 c3        1 MOL     -0.141783
    110 H46         0.5260    4.0490    2.2760 hn        1 MOL      0.381894
    111 H47        -0.7260    2.3660    2.9420 h1        1 MOL      0.095587
    112 H48         2.0980    1.2790    3.2140 hc        1 MOL      0.043721
    113 H49         1.4460   -0.3300    4.7860 hc        1 MOL      0.094176
    114 H50         0.6260   -0.7480    3.3020 hc        1 MOL      0.094176
    115 H51         0.4090    2.8700    5.0910 hc        1 MOL      0.033342
    116 H52         1.9770    2.0380    5.4240 hc        1 MOL      0.033342
    117 H53         1.7420    3.3590    4.2400 hc        1 MOL      0.033342
    118 H54        -1.4690    0.4920    4.2910 hc        1 MOL      0.043482
    119 H55        -0.9940   -0.8790    5.2600 hc        1 MOL      0.043482
    120 H56        -0.5740    0.7490    5.7940 hc        1 MOL      0.043482
    121 N11        -1.2780    0.6180    1.1910 n         1 MOL     -0.332118
    122 C40        -1.7570   -0.4810    0.3360 c3        1 MOL     -0.236122
    123 C41        -3.2790   -0.5160    0.0710 c         1 MOL      0.534556
    124 O16        -3.6720   -1.5120   -0.5760 o         1 MOL     -0.530704
    125 C42        -1.3520   -1.8270    1.0280 c3        1 MOL      0.460539
    126 O17        -1.8060   -1.8930    2.3570 oh        1 MOL     -0.614039
    127 H57        -1.9810    1.2110    1.6170 hn        1 MOL      0.250817
    128 H58        -1.2980   -0.3770   -0.6450 h1        1 MOL      0.147363
    129 H59        -0.2680   -1.9130    0.9990 h1        1 MOL     -0.079491
    130 H60        -1.8260   -2.6510    0.5050 h1        1 MOL     -0.079491
    131 H61        -1.3840   -2.6400    2.7800 ho        1 MOL      0.397395
    132 N12        -4.0880    0.4210    0.5000 n         1 MOL     -0.371124
    133 C43        -5.4780    0.4880    0.1400 c3        1 MOL      0.024699
    134 C44        -5.7590    1.0650   -1.2970 c         1 MOL      0.586428
    135 O18        -4.8860    1.6330   -1.9680 o         1 MOL     -0.592464
    136 C45        -6.2430    1.2550    1.2540 c3        1 MOL     -0.275205
    137 H62        -3.7400    1.2660    0.9240 hn        1 MOL      0.270829
    138 H63        -5.8020   -0.5510    0.1240 h1        1 MOL      0.119378
    139 H64        -7.3260    1.3040    1.1200 hc        1 MOL      0.094344
    140 H65        -6.1020    0.8440    2.2590 hc        1 MOL      0.094344
    141 H66        -5.7720    2.2330    1.2550 hc        1 MOL      0.094344
    142 N13        -6.9120    1.0100   -1.9130 n         1 MOL     -0.507246
    143 C46        -8.1430    0.2310   -1.4180 c3        1 MOL      0.204329
    144 C47        -9.3190    0.6300   -2.2740 c         1 MOL      0.439829
    145 O19        -9.2340    0.6820   -3.4750 o         1 MOL     -0.521341
    146 C48        -7.9070   -1.2910   -1.6180 c3        1 MOL     -0.435650
    147 H67        -6.9890    1.4920   -2.7970 hn        1 MOL      0.321635
    148 H68        -8.3340    0.5360   -0.3940 h1        1 MOL      0.023903
    149 H69        -7.6040   -1.5040   -2.6430 hc        1 MOL      0.137143
    150 H70        -7.1200   -1.7620   -1.0300 hc        1 MOL      0.137143
    151 H71        -8.9160   -1.6580   -1.4440 hc        1 MOL      0.137143
    152 N14       -10.5070    0.7560   -1.6500 n         1 MOL     -0.411504
    153 C49       -10.8060    0.6760   -0.2000 c3        1 MOL     -0.046819
    154 C50       -10.3090    1.8310    0.6050 c         1 MOL      0.389496
    155 O20        -9.9200    1.5830    1.7610 o         1 MOL     -0.497051
    156 C51       -12.2710    0.4740   -0.0430 c3        1 MOL      0.357353
    157 C52       -12.8300   -0.7810   -0.7550 c3        1 MOL     -0.301372
    158 C53       -14.2550   -1.1740   -0.4770 c         1 MOL      0.705598
    159 O21       -14.4340   -2.4250   -0.3220 o         1 MOL     -0.654578
    160 O22       -15.1840   -0.3620   -0.3410 o         1 MOL     -0.654578
    161 H72       -11.2000    0.9480   -2.3470 hn        1 MOL      0.299540
    162 H73       -10.3830   -0.1810    0.3190 h1        1 MOL      0.079109
    163 H74       -12.7950    1.3580   -0.3960 hc        1 MOL     -0.063201
    164 H75       -12.4220    0.5480    1.0330 hc        1 MOL     -0.063201
    165 H76       -12.1750   -1.6000   -0.4780 hc        1 MOL      0.033365
    166 H77       -12.6920   -0.4710   -1.7910 hc        1 MOL      0.033365
    167 N15       -10.2510    3.0190    0.0410 n         1 MOL     -0.284161
    168 C54        -9.3950    4.0650    0.5080 c3        1 MOL     -0.095379
    169 H78        -8.4740    4.0680   -0.0750 h1        1 MOL      0.069245
    170 H79        -9.8980    5.0250    0.3940 h1        1 MOL      0.069245
    171 H80        -9.1580    3.9010    1.5590 h1        1 MOL      0.069245
    172 H81       -10.5820    3.1720   -0.8940 hn        1 MOL      0.260171
    173 Ca1         3.0020    0.4850   -0.8500 Ca        1 MOL      1.730642
    174 O23         0.9280    1.0900   -2.3490 oh        1 MOL     -0.905182
    175 H82        -0.0250    1.1850   -2.3290 ho        1 MOL      0.444972
    176 H83         1.1410    1.0500   -3.2850 ho        1 MOL      0.444972
    177 O24         3.8360    2.3150   -2.6330 oh        1 MOL     -0.905182
    178 H84         4.6400    2.2440   -3.1470 ho        1 MOL      0.444972
    179 H85         3.3190    2.9860   -3.0740 ho        1 MOL      0.444972
@<TRIPOS>BOND
     1    1    2 1   
     2    1    4 1   
     3    1    5 1   
     4    1    6 1   
     5    2    3 2   
     6    2    7 1   
     7    7    8 1   
     8    7   15 1   
     9    8    9 1   
    10    8   11 1   
    11    8   16 1   
    12    9   10 2   
    13    9   19 1   
    14   11   12 1   
    15   11   17 1   
    16   11   18 1   
    17   12   13 1   
    18   12   14 1   
    19   19   20 1   
    20   19   28 1   
    21   20   21 1   
    22   20   23 1   
    23   20   29 1   
    24   21   22 2   
    25   21   41 1   
    26   23   24 1   
    27   23   30 1   
    28   23   31 1   
    29   24   25 1   
    30   24   32 1   
    31   24   33 1   
    32   25   26 1   
    33   25   34 1   
    34   25   35 1   
    35   26   27 1   
    36   26   36 1   
    37   26   37 1   
    38   27   38 1   
    39   27   39 1   
    40   27   40 1   
    41   41   42 1   
    42   41   49 1   
    43   42   43 1   
    44   42   45 1   
    45   42   50 1   
    46   43   44 2   
    47   43   53 1   
    48   45   46 1   
    49   45   51 1   
    50   45   52 1   
    51   46   47 1   
    52   46   48 1   
    53   53   54 1   
    54   53   57 1   
    55   54   55 1   
    56   54   58 1   
    57   54   59 1   
    58   55   56 2   
    59   55   60 1   
    60   60   61 1   
    61   60   68 1   
    62   61   62 1   
    63   61   64 1   
    64   61   69 1   
    65   62   63 2   
    66   62   74 1   
    67   64   65 1   
    68   64   70 1   
    69   64   71 1   
    70   65   66 1   
    71   65   67 2   
    72   66   72 1   
    73   66   73 1   
    74   74   75 1   
    75   74   78 1   
    76   75   76 1   
    77   75   79 1   
    78   75   80 1   
    79   76   77 2   
    80   76   81 1   
    81   81   82 1   
    82   81   93 1   
    83   82   83 1   
    84   82   85 1   
    85   82   94 1   
    86   83   84 2   
    87   83  102 1   
    88   85   86 1   
    89   85   95 1   
    90   85   96 1   
    91   86   87 ar  
    92   86   88 ar  
    93   87   89 ar  
    94   87   97 1   
    95   88   90 ar  
    96   88   98 1   
    97   89   91 ar  
    98   89   99 1   
    99   90   91 ar  
   100   90  100 1   
   101   91   92 1   
   102   92  101 1   
   103  102  103 1   
   104  102  110 1   
   105  103  104 1   
   106  103  106 1   
   107  103  111 1   
   108  104  105 2   
   109  104  121 1   
   110  106  107 1   
   111  106  108 1   
   112  106  112 1   
   113  107  109 1   
   114  107  113 1   
   115  107  114 1   
   116  108  115 1   
   117  108  116 1   
   118  108  117 1   
   119  109  118 1   
   120  109  119 1   
   121  109  120 1   
   122  121  122 1   
   123  121  127 1   
   124  122  123 1   
   125  122  125 1   
   126  122  128 1   
   127  123  124 2   
   128  123  132 1   
   129  125  126 1   
   130  125  129 1   
   131  125  130 1   
   132  126  131 1   
   133  132  133 1   
   134  132  137 1   
   135  133  134 1   
   136  133  136 1   
   137  133  138 1   
   138  134  135 2   
   139  134  142 1   
   140  136  139 1   
   141  136  140 1   
   142  136  141 1   
   143  142  143 1   
   144  142  147 1   
   145  143  144 1   
   146  143  146 1   
   147  143  148 1   
   148  144  145 2   
   149  144  152 1   
   150  146  149 1   
   151  146  150 1   
   152  146  151 1   
   153  152  153 1   
   154  152  161 1   
   155  153  154 1   
   156  153  156 1   
   157  153  162 1   
   158  154  155 2   
   159  154  167 1   
   160  156  157 1   
   161  156  163 1   
   162  156  164 1   
   163  157  158 1   
   164  157  165 1   
   165  157  166 1   
   166  158  159 1   
   167  158  160 1   
   168  167  168 1   
   169  167  172 1   
   170  168  169 1   
   171  168  170 1   
   172  168  171 1   
   173  174  175 1   
   174  174  176 1   
   175  177  178 1   
   176  177  179 1   
@<TRIPOS>SUBSTRUCTURE
     1 MOL         1 TEMP              0 ****  ****    0 ROOT
