@<TRIPOS>MOLECULE
MOL
  184   179     1     0     0
SMALL
resp


@<TRIPOS>ATOM
      1 C1         -3.7310   -5.5590   -4.1440 c3        1 MOL     -0.392197
      2 C2         -4.3640   -6.3860   -3.0070 c         1 MOL      0.705608
      3 O1         -3.6820   -7.3030   -2.4530 o         1 MOL     -0.626270
      4 H1         -3.5700   -4.5360   -3.8020 hc        1 MOL      0.095097
      5 H2         -2.7750   -6.0010   -4.4270 hc        1 MOL      0.095097
      6 H3         -4.3980   -5.5540   -5.0050 hc        1 MOL      0.095097
      7 N1         -5.5370   -6.0390   -2.6140 n         1 MOL     -0.630800
      8 C3         -6.0830   -6.2320   -1.2710 c3        1 MOL      0.438325
      9 C4         -5.7200   -4.9680   -0.4320 c         1 MOL      0.510228
     10 O2         -5.7160   -3.8810   -1.0200 o         1 MOL     -0.518395
     11 C5         -7.5430   -6.6840   -1.1540 c3        1 MOL     -0.403505
     12 C6         -8.4690   -5.9830   -2.1570 c         1 MOL      0.748231
     13 O3         -9.0860   -4.9310   -1.8740 o         1 MOL     -0.741227
     14 O4         -8.5820   -6.4050   -3.3280 o         1 MOL     -0.741227
     15 H4         -6.0110   -5.3840   -3.2140 hn        1 MOL      0.338380
     16 H5         -5.5360   -7.0960   -0.9150 h1        1 MOL     -0.008546
     17 H6         -7.9970   -6.4890   -0.1770 hc        1 MOL      0.061547
     18 H7         -7.5430   -7.7480   -1.3680 hc        1 MOL      0.061547
     19 N2         -5.5950   -5.0870    0.9000 n         1 MOL     -0.718669
     20 C7         -5.4690   -3.9350    1.7420 c3        1 MOL      0.675538
     21 C8         -4.0040   -3.3700    1.8360 c         1 MOL      0.319177
     22 O5         -3.0380   -4.0600    1.5600 o         1 MOL     -0.545311
     23 C9         -6.1260   -4.2860    3.0800 c3        1 MOL     -0.416164
     24 H8         -5.3610   -5.9370    1.3910 hn        1 MOL      0.297976
     25 H9         -6.0370   -3.1570    1.2320 h1        1 MOL     -0.033235
     26 H10        -5.5720   -5.1390    3.4720 hc        1 MOL      0.090606
     27 H11        -5.9380   -3.4890    3.8020 hc        1 MOL      0.090606
     28 H12        -7.1930   -4.4570    2.9480 hc        1 MOL      0.090606
     29 N3         -3.7640   -2.1830    2.3440 n         1 MOL     -0.230619
     30 C10        -4.6920   -1.1380    2.8110 c3        1 MOL     -0.298756
     31 C11        -4.5700    0.1500    2.0430 c         1 MOL      0.648133
     32 O6         -3.4910    0.6920    1.8300 o         1 MOL     -0.429570
     33 C12        -4.5280   -0.8800    4.3140 c3        1 MOL      0.033375
     34 C13        -3.0670   -0.8390    4.7970 c         1 MOL      0.608268
     35 O7         -2.1480   -0.7080    3.9190 o         1 MOL     -0.655838
     36 O8         -2.8930   -0.9060    6.0480 o         1 MOL     -0.655838
     37 H13        -2.8110   -1.9040    2.5320 hn        1 MOL      0.242530
     38 H14        -5.7240   -1.4650    2.6930 h1        1 MOL      0.063139
     39 H15        -5.1420   -1.4760    4.9930 hc        1 MOL      0.007291
     40 H16        -4.9000    0.1340    4.4390 hc        1 MOL      0.007291
     41 N4         -5.6430    0.7660    1.5750 n         1 MOL     -0.625411
     42 C14        -5.5060    2.0360    0.8560 c3        1 MOL      0.191217
     43 C15        -5.1630    1.7970   -0.5960 c         1 MOL      0.466755
     44 O9         -4.8510    0.6880   -0.9500 o         1 MOL     -0.483815
     45 H17        -6.5140    0.2690    1.6820 hn        1 MOL      0.347643
     46 H18        -4.7170    2.6470    1.2990 h1        1 MOL      0.028752
     47 H19        -6.4040    2.6380    1.0010 h1        1 MOL      0.028752
     48 N5         -4.9800    2.8010   -1.4850 n         1 MOL     -0.457287
     49 C16        -5.0570    4.1750   -1.1990 c3        1 MOL      0.201672
     50 C17        -3.9860    4.9120   -2.0590 c         1 MOL      0.568033
     51 O10        -3.4560    4.4060   -3.0170 o         1 MOL     -0.503597
     52 C18        -6.5030    4.6890   -1.3920 c3        1 MOL     -0.326862
     53 C19        -7.0370    5.7070   -0.4620 c         1 MOL      0.643395
     54 N6         -8.2830    5.4960   -0.0500 n         1 MOL     -0.757875
     55 O11        -6.2880    6.6580   -0.1620 o         1 MOL     -0.555683
     56 H20        -4.4110    2.5070   -2.2630 hn        1 MOL      0.263541
     57 H21        -4.7030    4.3420   -0.1760 h1        1 MOL      0.008298
     58 H22        -7.1550    3.8100   -1.4370 hc        1 MOL      0.092799
     59 H23        -6.6660    5.0140   -2.4130 hc        1 MOL      0.092799
     60 H24        -8.7590    4.6760   -0.3980 hn        1 MOL      0.366291
     61 H25        -8.8060    6.1680    0.4930 hn        1 MOL      0.366291
     62 N7         -3.6200    6.2100   -1.7950 n         1 MOL     -0.523760
     63 C20        -2.9010    7.0950   -2.7680 c3        1 MOL      0.055827
     64 C21        -1.3810    7.0780   -2.5500 c         1 MOL      0.487853
     65 O12        -0.6940    8.0680   -2.9200 o         1 MOL     -0.567480
     66 H26        -3.9570    6.6870   -0.9700 hn        1 MOL      0.319823
     67 H27        -3.3460    8.0830   -2.7220 h1        1 MOL      0.067257
     68 H28        -3.1010    6.7260   -3.7780 h1        1 MOL      0.067257
     69 N8         -0.8330    6.0710   -1.9010 n         1 MOL     -0.330448
     70 C22         0.5290    6.1520   -1.3620 c3        1 MOL      0.048851
     71 C23         1.2190    4.6850   -1.2620 c         1 MOL      0.475995
     72 O13         0.5200    3.6620   -1.1610 o         1 MOL     -0.538321
     73 C24         0.6290    6.7130    0.0770 c3        1 MOL      0.383247
     74 C25         0.0690    8.1260    0.2110 c3        1 MOL     -0.489224
     75 O14        -0.1950    5.8870    0.8650 oh        1 MOL     -0.626509
     76 H29        -1.2580    5.1590   -1.7980 hn        1 MOL      0.264195
     77 H30         1.2010    6.8220   -1.8970 h1        1 MOL      0.052364
     78 H31         1.6620    6.6810    0.4340 h1        1 MOL      0.016598
     79 H32         0.1630    5.8290    1.7560 ho        1 MOL      0.396316
     80 H33         0.2960    8.5000    1.2040 hc        1 MOL      0.124444
     81 H34         0.6670    8.7690   -0.4330 hc        1 MOL      0.124444
     82 H35        -0.9860    8.1930   -0.0390 hc        1 MOL      0.124444
     83 N9          2.5190    4.6610   -1.2070 n         1 MOL     -0.572916
     84 C26         3.3490    3.4500   -1.0990 c3        1 MOL      0.397166
     85 C27         3.8200    3.3240    0.3810 c         1 MOL      0.240009
     86 O15         4.3930    4.1950    0.9130 o         1 MOL     -0.534640
     87 C28         4.4990    3.5190   -2.0830 c3        1 MOL      0.097426
     88 C29         5.3710    2.2450   -1.9910 c3        1 MOL     -0.306880
     89 C30         3.9750    3.7870   -3.5680 c3        1 MOL     -0.195802
     90 C31         4.8560    1.0290   -2.7920 c3        1 MOL      0.024218
     91 H36         2.9710    5.5680   -1.1420 hn        1 MOL      0.287190
     92 H37         2.7880    2.5500   -1.3620 h1        1 MOL      0.077606
     93 H38         5.1020    4.3760   -1.7800 hc        1 MOL     -0.017939
     94 H39         5.5500    1.8830   -0.9780 hc        1 MOL      0.082975
     95 H40         6.3230    2.3420   -2.5020 hc        1 MOL      0.082975
     96 H41         3.3140    4.6460   -3.7050 hc        1 MOL      0.046868
     97 H42         4.8160    3.9410   -4.2430 hc        1 MOL      0.046868
     98 H43         3.4220    2.9200   -3.9110 hc        1 MOL      0.046868
     99 H44         3.7860    0.9500   -2.9890 hc        1 MOL     -0.004246
    100 H45         5.3660    0.9790   -3.7470 hc        1 MOL     -0.004246
    101 H46         5.0940    0.1080   -2.2580 hc        1 MOL     -0.004246
    102 N10         3.6740    2.1450    0.9370 n         1 MOL      0.020460
    103 C32         4.2710    1.6170    2.2360 c3        1 MOL      0.323223
    104 C33         5.4840    0.6950    1.9680 c         1 MOL      0.158893
    105 O16         6.4900    0.7390    2.7010 o         1 MOL     -0.555633
    106 C34         3.2440    0.9610    3.1490 c3        1 MOL     -0.514666
    107 C35         1.9770    1.6460    3.6570 c         1 MOL      0.972722
    108 O17         0.9050    1.0540    3.7080 o         1 MOL     -0.803907
    109 O18         2.0410    2.8570    3.9000 o         1 MOL     -0.803907
    110 H47         2.9930    1.5160    0.5440 hn        1 MOL     -0.079513
    111 H48         4.6970    2.5070    2.7000 h1        1 MOL      0.029807
    112 H49         3.8530    0.7440    4.0250 hc        1 MOL      0.117244
    113 H50         3.0050   -0.0110    2.7090 hc        1 MOL      0.117244
    114 N11         5.4490   -0.1490    1.0100 n         1 MOL     -0.099142
    115 C36         6.4380   -1.2430    0.7310 c3        1 MOL      0.427732
    116 C37         5.7740   -2.5640    0.3940 c         1 MOL      0.087534
    117 O19         6.0010   -3.0960   -0.7340 o         1 MOL     -0.457177
    118 C38         7.4760   -0.7690   -0.2730 c3        1 MOL     -0.305802
    119 C39         8.8510   -1.4410   -0.2360 ca        1 MOL      0.131230
    120 C40         9.5350   -1.8780    0.9290 ca        1 MOL     -0.147009
    121 C41         9.5150   -1.7140   -1.4600 ca        1 MOL     -0.147009
    122 C42        10.7540   -2.4820    0.9120 ca        1 MOL     -0.102223
    123 C43        10.7770   -2.2880   -1.4880 ca        1 MOL     -0.102223
    124 C44        11.4350   -2.6690   -0.3220 ca        1 MOL     -0.168979
    125 H51         4.6330   -0.1220    0.4120 hn        1 MOL      0.309216
    126 H52         7.0150   -1.4060    1.6440 h1        1 MOL      0.008220
    127 H53         7.7600    0.2440    0.0000 hc        1 MOL      0.080843
    128 H54         7.1390   -0.7170   -1.3070 hc        1 MOL      0.080843
    129 H55         9.1020   -1.6470    1.8900 ha        1 MOL      0.103962
    130 H56         9.0500   -1.4040   -2.3830 ha        1 MOL      0.103962
    131 H57        11.2760   -2.7900    1.8160 ha        1 MOL      0.098559
    132 H58        11.1650   -2.5180   -2.4750 ha        1 MOL      0.098559
    133 H59        12.3820   -3.1890   -0.3290 ha        1 MOL      0.111047
    134 N12         4.8640   -3.1330    1.1710 n         1 MOL      0.070851
    135 C45         4.0250   -4.3490    0.9300 c3        1 MOL      0.055251
    136 C46         3.3920   -4.3310   -0.4030 c         1 MOL      0.276476
    137 O20         3.2720   -5.4000   -0.9980 o         1 MOL     -0.490644
    138 C47         3.0600   -4.4500    2.0800 c3        1 MOL     -0.187041
    139 C48         3.9500   -4.0430    3.2200 c3        1 MOL     -0.106304
    140 C49         4.6380   -2.8380    2.6000 c3        1 MOL     -0.097585
    141 H60         4.6970   -5.2060    0.9170 h1        1 MOL      0.088026
    142 H61         2.3030   -3.6740    2.0710 hc        1 MOL      0.102049
    143 H62         2.8160   -5.4960    2.2720 hc        1 MOL      0.102049
    144 H63         3.3540   -3.7040    4.0640 hc        1 MOL      0.061177
    145 H64         4.6070   -4.9030    3.3930 hc        1 MOL      0.061177
    146 H65         4.0160   -1.9600    2.7790 h1        1 MOL      0.050242
    147 H66         5.5410   -2.7030    3.1830 h1        1 MOL      0.050242
    148 N13         3.0050   -3.1550   -1.0150 n         1 MOL     -0.067948
    149 C50         2.3260   -3.0550   -2.3320 c3        1 MOL     -0.215843
    150 C51         3.2100   -3.2070   -3.5590 c         1 MOL      0.557326
    151 O21         2.7760   -3.7090   -4.5940 o         1 MOL     -0.576454
    152 C52         1.6170   -1.6940   -2.4150 c3        1 MOL      0.125867
    153 C53         0.8030   -1.2300   -1.1900 c3        1 MOL     -0.202201
    154 C54         1.6880   -0.4660   -0.1460 c         1 MOL      0.554393
    155 O22         1.1140    0.4000    0.5760 o         1 MOL     -0.559288
    156 O23         2.9490   -0.6410   -0.0860 o         1 MOL     -0.559288
    157 H67         3.1800   -2.2790   -0.5560 hn        1 MOL      0.037527
    158 H68         1.6170   -3.8740   -2.4800 h1        1 MOL      0.138649
    159 H69         0.9960   -1.6230   -3.3030 hc        1 MOL     -0.026285
    160 H70         2.3660   -0.9070   -2.5310 hc        1 MOL     -0.026285
    161 H71         0.1610   -2.0260   -0.8250 hc        1 MOL      0.068850
    162 H72         0.0520   -0.5330   -1.5670 hc        1 MOL      0.068850
    163 N14         4.4370   -2.7560   -3.4900 n         1 MOL     -0.211610
    164 C55         5.5390   -3.0660   -4.3610 c3        1 MOL     -0.173438
    165 H73         5.4290   -4.0830   -4.7380 h1        1 MOL      0.082201
    166 H74         5.5490   -2.3680   -5.1980 h1        1 MOL      0.082201
    167 H75         6.4750   -2.9840   -3.8070 h1        1 MOL      0.082201
    168 H76         4.6330   -2.2540   -2.6310 hn        1 MOL      0.194997
    169 Ca1        -0.9010    0.6430    1.9980 Ca        1 MOL      1.661152
    170 O24        -1.9750    2.6260    3.5260 oh        1 MOL     -0.832754
    171 H77        -1.2360    3.2070    3.6680 ho        1 MOL      0.404246
    172 H78        -2.4670    2.6500    4.3450 ho        1 MOL      0.404246
    173 O25        -0.3140   -1.9930    2.4800 oh        1 MOL     -0.832754
    174 H79        -0.7640   -2.1960    3.2920 ho        1 MOL      0.404246
    175 H80        -0.0070   -2.8370    2.1580 ho        1 MOL      0.404246
    176 O26         0.4190    3.0510    1.6250 oh        1 MOL     -0.832754
    177 H81         0.6200    3.6690    0.9300 ho        1 MOL      0.404246
    178 H82         1.0900    3.2160    2.2940 ho        1 MOL      0.404246
    179 O27        -2.1830   -1.0760    0.0630 oh        1 MOL     -0.832754
    180 H83        -2.1480   -2.0190   -0.0980 ho        1 MOL      0.404246
    181 H84        -2.4110   -0.7040   -0.7910 ho        1 MOL      0.404246
    182 O28        -1.3440    1.7490   -0.4950 oh        1 MOL     -0.832754
    183 H85        -1.7430    1.3670   -1.2790 ho        1 MOL      0.404246
    184 H86        -0.6010    2.2600   -0.8280 ho        1 MOL      0.404246
@<TRIPOS>BOND
     1    1    2 1   
     2    1    4 1   
     3    1    5 1   
     4    1    6 1   
     5    2    3 2   
     6    2    7 1   
     7    7    8 1   
     8    7   15 1   
     9    8    9 1   
    10    8   11 1   
    11    8   16 1   
    12    9   10 2   
    13    9   19 1   
    14   11   12 1   
    15   11   17 1   
    16   11   18 1   
    17   12   13 1   
    18   12   14 1   
    19   19   20 1   
    20   19   24 1   
    21   20   21 1   
    22   20   23 1   
    23   20   25 1   
    24   21   22 2   
    25   21   29 1   
    26   23   26 1   
    27   23   27 1   
    28   23   28 1   
    29   29   30 1   
    30   29   37 1   
    31   30   31 1   
    32   30   33 1   
    33   30   38 1   
    34   31   32 2   
    35   31   41 1   
    36   33   34 1   
    37   33   39 1   
    38   33   40 1   
    39   34   35 1   
    40   34   36 1   
    41   41   42 1   
    42   41   45 1   
    43   42   43 1   
    44   42   46 1   
    45   42   47 1   
    46   43   44 2   
    47   43   48 1   
    48   48   49 1   
    49   48   56 1   
    50   49   50 1   
    51   49   52 1   
    52   49   57 1   
    53   50   51 2   
    54   50   62 1   
    55   52   53 1   
    56   52   58 1   
    57   52   59 1   
    58   53   54 1   
    59   53   55 2   
    60   54   60 1   
    61   54   61 1   
    62   62   63 1   
    63   62   66 1   
    64   63   64 1   
    65   63   67 1   
    66   63   68 1   
    67   64   65 2   
    68   64   69 1   
    69   69   70 1   
    70   69   76 1   
    71   70   71 1   
    72   70   73 1   
    73   70   77 1   
    74   71   72 2   
    75   71   83 1   
    76   73   74 1   
    77   73   75 1   
    78   73   78 1   
    79   74   80 1   
    80   74   81 1   
    81   74   82 1   
    82   75   79 1   
    83   83   84 1   
    84   83   91 1   
    85   84   85 1   
    86   84   87 1   
    87   84   92 1   
    88   85   86 2   
    89   85  102 1   
    90   87   88 1   
    91   87   89 1   
    92   87   93 1   
    93   88   90 1   
    94   88   94 1   
    95   88   95 1   
    96   89   96 1   
    97   89   97 1   
    98   89   98 1   
    99   90   99 1   
   100   90  100 1   
   101   90  101 1   
   102  102  103 1   
   103  102  110 1   
   104  103  104 1   
   105  103  106 1   
   106  103  111 1   
   107  104  105 2   
   108  104  114 1   
   109  106  107 1   
   110  106  112 1   
   111  106  113 1   
   112  107  108 1   
   113  107  109 1   
   114  114  115 1   
   115  114  125 1   
   116  115  116 1   
   117  115  118 1   
   118  115  126 1   
   119  116  117 2   
   120  116  134 1   
   121  118  119 1   
   122  118  127 1   
   123  118  128 1   
   124  119  120 ar  
   125  119  121 ar  
   126  120  122 ar  
   127  120  129 1   
   128  121  123 ar  
   129  121  130 1   
   130  122  124 ar  
   131  122  131 1   
   132  123  124 ar  
   133  123  132 1   
   134  124  133 1   
   135  134  135 1   
   136  134  140 1   
   137  135  136 1   
   138  135  138 1   
   139  135  141 1   
   140  136  137 2   
   141  136  148 1   
   142  138  139 1   
   143  138  142 1   
   144  138  143 1   
   145  139  140 1   
   146  139  144 1   
   147  139  145 1   
   148  140  146 1   
   149  140  147 1   
   150  148  149 1   
   151  148  157 1   
   152  149  150 1   
   153  149  152 1   
   154  149  158 1   
   155  150  151 2   
   156  150  163 1   
   157  152  153 1   
   158  152  159 1   
   159  152  160 1   
   160  153  154 1   
   161  153  161 1   
   162  153  162 1   
   163  154  155 1   
   164  154  156 1   
   165  163  164 1   
   166  163  168 1   
   167  164  165 1   
   168  164  166 1   
   169  164  167 1   
   170  170  171 1   
   171  170  172 1   
   172  173  174 1   
   173  173  175 1   
   174  176  177 1   
   175  176  178 1   
   176  179  180 1   
   177  179  181 1   
   178  182  183 1   
   179  182  184 1   
@<TRIPOS>SUBSTRUCTURE
     1 MOL         1 TEMP              0 ****  ****    0 ROOT
