@<TRIPOS>MOLECULE
MOL
  188   182     1     0     0
SMALL
resp


@<TRIPOS>ATOM
      1 C1          5.1830   -0.8720    5.3130 c3        1 MOL     -0.517997
      2 C2          4.1600   -0.8460    4.1490 c         1 MOL      0.746855
      3 O1          3.0100   -0.5660    4.3540 o         1 MOL     -0.616565
      4 H1          5.3480   -1.9020    5.6290 hc        1 MOL      0.134107
      5 H2          6.1260   -0.4410    4.9770 hc        1 MOL      0.134107
      6 H3          4.7970   -0.2930    6.1510 hc        1 MOL      0.134107
      7 N1          4.6080   -1.0630    2.9200 n         1 MOL     -0.694590
      8 C3          3.7610   -0.9960    1.7340 c3        1 MOL      0.515437
      9 C4          3.4780   -2.3300    1.0840 c         1 MOL      0.037513
     10 O2          2.5290   -2.4010    0.3510 o         1 MOL     -0.221760
     11 C5          4.2610    0.0270    0.7070 c3        1 MOL     -0.295281
     12 C6          5.6640   -0.2820    0.2770 c         1 MOL      0.632888
     13 O3          6.5960    0.5580    0.4080 o         1 MOL     -0.631220
     14 O4          5.8290   -1.3790   -0.1560 o         1 MOL     -0.631220
     15 H4          5.5790   -1.3050    2.8080 hn        1 MOL      0.348806
     16 H5          2.7550   -0.6740    2.0200 h1        1 MOL      0.054950
     17 H6          4.1900    1.0280    1.1360 hc        1 MOL      0.047032
     18 H7          3.6570    0.0210   -0.1990 hc        1 MOL      0.047032
     19 N2          4.2290   -3.4380    1.3880 n         1 MOL     -0.280246
     20 C7          4.1910   -4.7810    0.6960 c3        1 MOL      0.130741
     21 C8          4.5720   -4.7840   -0.7910 c         1 MOL      0.554510
     22 O5          5.3140   -5.5950   -1.3240 o         1 MOL     -0.576774
     23 C9          5.1070   -5.6840    1.5650 c3        1 MOL     -0.130399
     24 C10         4.7040   -5.8700    3.0120 c3        1 MOL     -0.010555
     25 C11         5.7540   -6.6340    3.8650 c3        1 MOL     -0.163149
     26 C12         5.3420   -6.5700    5.3240 c3        1 MOL      0.173492
     27 N3          5.8970   -7.6990    6.1210 n4        1 MOL     -0.377241
     28 H8          5.0040   -3.2600    2.0160 hn        1 MOL      0.250899
     29 H9          3.1720   -5.1350    0.8540 h1        1 MOL      0.051044
     30 H10         6.1290   -5.3020    1.5900 hc        1 MOL      0.062639
     31 H11         5.1680   -6.6850    1.1340 hc        1 MOL      0.062639
     32 H12         3.8300   -6.5240    2.9710 hc        1 MOL      0.028398
     33 H13         4.5100   -4.9550    3.5860 hc        1 MOL      0.028398
     34 H14         6.8000   -6.3910    3.6540 hc        1 MOL      0.075004
     35 H15         5.7590   -7.6910    3.6310 hc        1 MOL      0.075004
     36 H16         4.2570   -6.4830    5.3570 hx        1 MOL      0.036899
     37 H17         5.7190   -5.6850    5.8260 hx        1 MOL      0.036899
     38 H18         6.9070   -7.7740    6.1570 hn        1 MOL      0.316268
     39 H19         5.5440   -7.6000    7.0590 hn        1 MOL      0.316268
     40 H20         5.5280   -8.6000    5.8480 hn        1 MOL      0.316268
     41 N4          4.0000   -3.8210   -1.5150 n         1 MOL     -0.213241
     42 C13         3.8560   -3.6680   -3.0010 c3        1 MOL      0.289337
     43 C14         4.2190   -2.2530   -3.5630 c         1 MOL      0.236584
     44 O6          4.1610   -2.0230   -4.7980 o         1 MOL     -0.512697
     45 C15         2.5120   -4.1080   -3.3910 c3        1 MOL     -0.420505
     46 C16         1.4110   -3.3990   -2.6120 c         1 MOL      1.043546
     47 O7          1.0050   -2.2710   -2.9700 o         1 MOL     -0.811191
     48 O8          0.8690   -4.0050   -1.6230 o         1 MOL     -0.811191
     49 H21         3.3840   -3.2310   -0.9640 hn        1 MOL     -0.183346
     50 H22         4.6310   -4.3030   -3.4330 h1        1 MOL      0.071531
     51 H23         2.4530   -5.1770   -3.1840 hc        1 MOL      0.082323
     52 H24         2.4090   -3.9850   -4.4660 hc        1 MOL      0.082323
     53 N5          4.4130   -1.3050   -2.6990 n         1 MOL     -0.015077
     54 C17         4.7020    0.0930   -2.9470 c3        1 MOL      0.061385
     55 C18         6.0850    0.3490   -3.5360 c         1 MOL      0.509469
     56 O9          6.8830   -0.5770   -3.7710 o         1 MOL     -0.506089
     57 H25         4.4730   -1.5410   -1.7240 hn        1 MOL      0.103485
     58 H26         4.6300    0.6230   -2.0030 h1        1 MOL      0.044312
     59 H27         3.9030    0.4600   -3.5950 h1        1 MOL      0.044312
     60 N6          6.4530    1.5810   -3.8700 n         1 MOL     -0.472174
     61 C19         5.7870    2.8190   -3.5070 c3        1 MOL      0.076989
     62 C20         6.1320    3.3010   -2.0820 c         1 MOL      0.484556
     63 O10         7.2760    3.3200   -1.6540 o         1 MOL     -0.483480
     64 C21         6.1900    3.8800   -4.5280 c3        1 MOL     -0.272324
     65 C22         5.6910    5.2660   -4.2150 c         1 MOL      0.698130
     66 N7          6.5140    6.2800   -3.9990 n         1 MOL     -0.780345
     67 O11         4.4750    5.4220   -4.1960 o         1 MOL     -0.565866
     68 H28         7.3810    1.6640   -4.2460 hn        1 MOL      0.313063
     69 H29         4.6970    2.7350   -3.5970 h1        1 MOL      0.078347
     70 H30         5.7350    3.6170   -5.4860 hc        1 MOL      0.091956
     71 H31         7.2560    3.9510   -4.7770 hc        1 MOL      0.091956
     72 H32         7.5270    6.1940   -3.9420 hn        1 MOL      0.361468
     73 H33         6.1460    7.1360   -3.6040 hn        1 MOL      0.361468
     74 N8          5.1600    3.7630   -1.2290 n         1 MOL     -0.472613
     75 C23         3.7110    3.5890   -1.3840 c3        1 MOL     -0.026831
     76 C24         2.9830    4.2090   -0.1470 c         1 MOL      0.687980
     77 O12         3.4850    4.7690    0.7830 o         1 MOL     -0.504271
     78 H34         5.5010    4.3020   -0.4490 hn        1 MOL      0.290175
     79 H35         3.3620    2.5580   -1.4730 h1        1 MOL      0.026816
     80 H36         3.3550    4.0970   -2.2780 h1        1 MOL      0.026816
     81 N9          1.6910    3.9030   -0.1480 n         1 MOL     -0.529621
     82 C25         0.7710    4.3230    0.9270 c3        1 MOL     -0.116981
     83 C26        -0.4620    3.3890    0.9030 c         1 MOL      0.956704
     84 O13        -0.4920    2.4610    0.0520 o         1 MOL     -0.648899
     85 C27         0.2440    5.7580    0.6320 c3        1 MOL     -0.319103
     86 C28        -0.2640    6.5840    1.7590 ca        1 MOL      0.019863
     87 C29        -1.7290    6.8660    1.7740 ca        1 MOL     -0.042008
     88 C30         0.5590    6.9790    2.7930 ca        1 MOL     -0.042008
     89 C31        -2.1920    7.5530    2.8850 ca        1 MOL     -0.400097
     90 C32         0.0520    7.7280    3.9110 ca        1 MOL     -0.400097
     91 C33        -1.3340    8.0030    3.9430 ca        1 MOL      0.458757
     92 O14        -1.8840    8.6610    4.9970 oh        1 MOL     -0.518801
     93 H37         1.2890    3.2590   -0.8120 hn        1 MOL      0.302449
     94 H38         1.2720    4.3280    1.8900 h1        1 MOL      0.103551
     95 H39        -0.5160    5.6360   -0.1310 hc        1 MOL      0.141130
     96 H40         1.0910    6.3000    0.2130 hc        1 MOL      0.141130
     97 H41        -2.3070    6.5450    0.9300 ha        1 MOL      0.132128
     98 H42         1.6190    6.9200    2.5820 ha        1 MOL      0.132128
     99 H43        -3.2460    7.7910    2.9610 ha        1 MOL      0.175498
    100 H44         0.7580    8.2060    4.5730 ha        1 MOL      0.175498
    101 H45        -1.2520    8.7740    5.7000 ho        1 MOL      0.381326
    102 N10        -1.4360    3.6020    1.7770 n         1 MOL     -0.792244
    103 C34        -2.6520    2.8110    1.8350 c3        1 MOL     -0.056137
    104 C35        -3.6730    3.2240    0.7180 c         1 MOL      0.593185
    105 O15        -3.5950    4.3570    0.2350 o         1 MOL     -0.514706
    106 C36        -3.1610    2.8760    3.3000 c3        1 MOL      0.137236
    107 C37        -2.3060    2.0320    4.2600 c3        1 MOL     -0.108655
    108 C38        -3.2910    4.3110    3.7110 c3        1 MOL     -0.089270
    109 C39        -3.0950    1.8060    5.5980 c3        1 MOL     -0.278114
    110 H46        -1.4710    4.3640    2.4330 hn        1 MOL      0.357210
    111 H47        -2.4720    1.7410    1.7410 h1        1 MOL      0.062672
    112 H48        -4.1510    2.4240    3.2710 hc        1 MOL      0.013414
    113 H49        -1.3810    2.5240    4.5800 hc        1 MOL      0.084094
    114 H50        -1.9980    1.0880    3.8180 hc        1 MOL      0.084094
    115 H51        -3.5520    4.9890    2.8930 hc        1 MOL      0.040493
    116 H52        -4.1840    4.3750    4.3370 hc        1 MOL      0.040493
    117 H53        -2.4410    4.6350    4.3120 hc        1 MOL      0.040493
    118 H54        -4.1090    1.5010    5.3340 hc        1 MOL      0.077135
    119 H55        -2.5680    1.0040    6.1210 hc        1 MOL      0.077135
    120 H56        -3.1360    2.7530    6.1240 hc        1 MOL      0.077135
    121 N11        -4.5390    2.3160    0.2900 n         1 MOL     -0.448964
    122 C40        -5.4560    2.4780   -0.8080 c3        1 MOL      0.131670
    123 C41        -5.6390    1.3080   -1.7170 c         1 MOL      0.660680
    124 O16        -5.1120    0.2410   -1.5250 o         1 MOL     -0.533126
    125 C42        -6.7330    3.0470   -0.2020 c3        1 MOL     -0.026725
    126 O17        -7.5000    2.1170    0.5870 oh        1 MOL     -0.584385
    127 H57        -4.4810    1.4390    0.7910 hn        1 MOL      0.282654
    128 H58        -5.0090    3.2970   -1.3710 h1        1 MOL      0.025453
    129 H59        -7.2520    3.6490   -0.9490 h1        1 MOL      0.067931
    130 H60        -6.3870    3.7670    0.5420 h1        1 MOL      0.067931
    131 H61        -8.2350    2.6080    0.9550 ho        1 MOL      0.405083
    132 N12        -6.3250    1.5520   -2.7720 n         1 MOL     -0.544040
    133 C43        -6.5820    0.6300   -3.8890 c3        1 MOL      0.097157
    134 C44        -7.0960   -0.7590   -3.3800 c         1 MOL      0.479579
    135 O18        -6.5720   -1.8280   -3.6540 o         1 MOL     -0.435649
    136 C45        -5.3870    0.4980   -4.8240 c3        1 MOL     -0.317784
    137 H62        -6.6710    2.4880   -2.9150 hn        1 MOL      0.307016
    138 H63        -7.4300    1.0570   -4.4190 h1        1 MOL      0.071567
    139 H64        -5.0160    1.4690   -5.1510 hc        1 MOL      0.106129
    140 H65        -4.5340   -0.0660   -4.4740 hc        1 MOL      0.106129
    141 H66        -5.7860    0.0140   -5.7100 hc        1 MOL      0.106129
    142 N13        -8.2050   -0.7350   -2.6450 n         1 MOL     -0.453708
    143 C46        -9.0140   -1.9130   -2.2510 c3        1 MOL      0.350827
    144 C47        -8.2020   -3.1360   -1.7220 c         1 MOL      0.431806
    145 O19        -8.1260   -4.1880   -2.3280 o         1 MOL     -0.500817
    146 C48        -9.9290   -2.2780   -3.3860 c3        1 MOL     -0.300587
    147 H67        -8.5050    0.1820   -2.3570 hn        1 MOL      0.214212
    148 H68        -9.7250   -1.6710   -1.4640 h1        1 MOL     -0.013393
    149 H69       -10.5660   -3.1220   -3.1050 hc        1 MOL      0.074334
    150 H70       -10.5790   -1.4440   -3.6310 hc        1 MOL      0.074334
    151 H71        -9.2680   -2.5080   -4.2100 hc        1 MOL      0.074334
    152 N14        -7.4480   -2.8910   -0.7440 n         1 MOL     -0.516652
    153 C49        -6.4620   -3.7650   -0.1500 c3        1 MOL      0.258904
    154 C50        -6.9690   -4.2420    1.2140 c         1 MOL      0.490962
    155 O20        -7.2260   -5.4490    1.3770 o         1 MOL     -0.543190
    156 C51        -5.1010   -3.0740   -0.1420 c3        1 MOL      0.088395
    157 C52        -4.1130   -3.8520    0.8010 c3        1 MOL     -0.479492
    158 C53        -2.7160   -3.2240    0.6630 c         1 MOL      0.779646
    159 O21        -1.9280   -3.8610   -0.1530 o         1 MOL     -0.720013
    160 O22        -2.4030   -2.1560    1.2430 o         1 MOL     -0.720013
    161 H72        -7.5020   -1.9310   -0.4330 hn        1 MOL      0.209523
    162 H73        -6.3440   -4.6650   -0.7460 h1        1 MOL      0.064490
    163 H74        -5.1890   -2.0070    0.0590 hc        1 MOL      0.053241
    164 H75        -4.6640   -3.2490   -1.1140 hc        1 MOL      0.053241
    165 H76        -4.0600   -4.9040    0.5160 hc        1 MOL      0.102285
    166 H77        -4.3870   -3.7270    1.8480 hc        1 MOL      0.102285
    167 N15        -7.2750   -3.3060    2.0900 n         1 MOL     -0.265522
    168 C54        -7.9680   -3.4370    3.3050 c3        1 MOL     -0.529546
    169 H78        -7.6470   -4.3490    3.8090 h1        1 MOL      0.184436
    170 H79        -7.7540   -2.5770    3.9400 h1        1 MOL      0.184436
    171 H80        -9.0390   -3.4880    3.1090 h1        1 MOL      0.184436
    172 H81        -7.2120   -2.3360    1.8020 hn        1 MOL      0.250331
    173 Ca1        -0.0580   -2.0930   -0.2510 Ca        1 MOL      1.683545
    174 O23        -1.5720    0.0760   -0.5160 oh        1 MOL     -0.826648
    175 H82        -1.2580    0.9710   -0.5820 ho        1 MOL      0.398523
    176 H83        -2.3980    0.0640   -1.0110 ho        1 MOL      0.398523
    177 O24        -1.7150   -2.1750   -2.5550 oh        1 MOL     -0.826648
    178 H84        -1.1400   -2.5000   -3.2540 ho        1 MOL      0.398523
    179 H85        -1.8860   -1.2580   -2.7810 ho        1 MOL      0.398523
    180 O25         0.4230   -0.2930    1.7630 oh        1 MOL     -0.826648
    181 H86         0.5610    0.6320    1.9710 ho        1 MOL      0.398523
    182 H87         0.1370   -0.6820    2.5950 ho        1 MOL      0.398523
    183 O26         0.1930   -3.3130    2.5870 oh        1 MOL     -0.826648
    184 H88         0.9070   -3.3920    3.2230 ho        1 MOL      0.398523
    185 H89        -0.5680   -3.6570    3.0480 ho        1 MOL      0.398523
    186 O27         1.2210    0.1750   -1.0740 oh        1 MOL     -0.826648
    187 H90         1.5810    0.4970   -1.9110 ho        1 MOL      0.398523
    188 H91         0.9200    0.9610   -0.6330 ho        1 MOL      0.398523
@<TRIPOS>BOND
     1    1    2 1   
     2    1    4 1   
     3    1    5 1   
     4    1    6 1   
     5    2    3 2   
     6    2    7 1   
     7    7    8 1   
     8    7   15 1   
     9    8    9 1   
    10    8   11 1   
    11    8   16 1   
    12    9   10 2   
    13    9   19 1   
    14   11   12 1   
    15   11   17 1   
    16   11   18 1   
    17   12   13 1   
    18   12   14 1   
    19   19   20 1   
    20   19   28 1   
    21   20   21 1   
    22   20   23 1   
    23   20   29 1   
    24   21   22 2   
    25   21   41 1   
    26   23   24 1   
    27   23   30 1   
    28   23   31 1   
    29   24   25 1   
    30   24   32 1   
    31   24   33 1   
    32   25   26 1   
    33   25   34 1   
    34   25   35 1   
    35   26   27 1   
    36   26   36 1   
    37   26   37 1   
    38   27   38 1   
    39   27   39 1   
    40   27   40 1   
    41   41   42 1   
    42   41   49 1   
    43   42   43 1   
    44   42   45 1   
    45   42   50 1   
    46   43   44 2   
    47   43   53 1   
    48   45   46 1   
    49   45   51 1   
    50   45   52 1   
    51   46   47 1   
    52   46   48 1   
    53   53   54 1   
    54   53   57 1   
    55   54   55 1   
    56   54   58 1   
    57   54   59 1   
    58   55   56 2   
    59   55   60 1   
    60   60   61 1   
    61   60   68 1   
    62   61   62 1   
    63   61   64 1   
    64   61   69 1   
    65   62   63 2   
    66   62   74 1   
    67   64   65 1   
    68   64   70 1   
    69   64   71 1   
    70   65   66 1   
    71   65   67 2   
    72   66   72 1   
    73   66   73 1   
    74   74   75 1   
    75   74   78 1   
    76   75   76 1   
    77   75   79 1   
    78   75   80 1   
    79   76   77 2   
    80   76   81 1   
    81   81   82 1   
    82   81   93 1   
    83   82   83 1   
    84   82   85 1   
    85   82   94 1   
    86   83   84 2   
    87   83  102 1   
    88   85   86 1   
    89   85   95 1   
    90   85   96 1   
    91   86   87 ar  
    92   86   88 ar  
    93   87   89 ar  
    94   87   97 1   
    95   88   90 ar  
    96   88   98 1   
    97   89   91 ar  
    98   89   99 1   
    99   90   91 ar  
   100   90  100 1   
   101   91   92 1   
   102   92  101 1   
   103  102  103 1   
   104  102  110 1   
   105  103  104 1   
   106  103  106 1   
   107  103  111 1   
   108  104  105 2   
   109  104  121 1   
   110  106  107 1   
   111  106  108 1   
   112  106  112 1   
   113  107  109 1   
   114  107  113 1   
   115  107  114 1   
   116  108  115 1   
   117  108  116 1   
   118  108  117 1   
   119  109  118 1   
   120  109  119 1   
   121  109  120 1   
   122  121  122 1   
   123  121  127 1   
   124  122  123 1   
   125  122  125 1   
   126  122  128 1   
   127  123  124 2   
   128  123  132 1   
   129  125  126 1   
   130  125  129 1   
   131  125  130 1   
   132  126  131 1   
   133  132  133 1   
   134  132  137 1   
   135  133  134 1   
   136  133  136 1   
   137  133  138 1   
   138  134  135 2   
   139  134  142 1   
   140  136  139 1   
   141  136  140 1   
   142  136  141 1   
   143  142  143 1   
   144  142  147 1   
   145  143  144 1   
   146  143  146 1   
   147  143  148 1   
   148  144  145 2   
   149  144  152 1   
   150  146  149 1   
   151  146  150 1   
   152  146  151 1   
   153  152  153 1   
   154  152  161 1   
   155  153  154 1   
   156  153  156 1   
   157  153  162 1   
   158  154  155 2   
   159  154  167 1   
   160  156  157 1   
   161  156  163 1   
   162  156  164 1   
   163  157  158 1   
   164  157  165 1   
   165  157  166 1   
   166  158  159 1   
   167  158  160 1   
   168  167  168 1   
   169  167  172 1   
   170  168  169 1   
   171  168  170 1   
   172  168  171 1   
   173  174  175 1   
   174  174  176 1   
   175  177  178 1   
   176  177  179 1   
   177  180  181 1   
   178  180  182 1   
   179  183  184 1   
   180  183  185 1   
   181  186  187 1   
   182  186  188 1   
@<TRIPOS>SUBSTRUCTURE
     1 MOL         1 TEMP              0 ****  ****    0 ROOT
