@<TRIPOS>MOLECULE
MOL
  184   179     1     0     0
SMALL
resp


@<TRIPOS>ATOM
      1 C1         -6.0460   -4.0470    5.2710 c3        1 MOL     -0.138938
      2 C2         -5.9900   -3.6540    3.7510 c         1 MOL      0.567308
      3 O1         -4.9830   -3.7200    3.1250 o         1 MOL     -0.548328
      4 H1         -6.7790   -3.4210    5.7800 hc        1 MOL      0.027119
      5 H2         -6.3350   -5.0940    5.3660 hc        1 MOL      0.027119
      6 H3         -5.0650   -3.8980    5.7220 hc        1 MOL      0.027119
      7 N1         -7.0320   -2.9950    3.1850 n         1 MOL     -0.243137
      8 C3         -8.4850   -2.9310    3.5110 c3        1 MOL     -0.115739
      9 C4         -8.9140   -1.4710    3.8320 c         1 MOL      0.474893
     10 O2         -8.2520   -0.8140    4.6060 o         1 MOL     -0.454038
     11 C5         -9.3070   -3.5620    2.3750 c3        1 MOL     -0.323024
     12 C6         -8.9350   -3.0050    0.9980 c         1 MOL      0.854515
     13 O3         -8.0660   -3.6130    0.3450 o         1 MOL     -0.811189
     14 O4         -9.3550   -1.9290    0.6320 o         1 MOL     -0.811189
     15 H4         -6.7360   -2.5260    2.3350 hn        1 MOL      0.265557
     16 H5         -8.6880   -3.6400    4.3230 h1        1 MOL      0.124971
     17 H6        -10.3820   -3.4400    2.5000 hc        1 MOL      0.064739
     18 H7         -9.0990   -4.6220    2.4470 hc        1 MOL      0.064739
     19 N2         -9.9820   -0.9650    3.1720 n         1 MOL     -0.413290
     20 C7        -10.5250    0.4050    3.2870 c3        1 MOL      0.120747
     21 C8         -9.5210    1.4430    2.7860 c         1 MOL      0.483762
     22 O5         -9.5190    2.5680    3.2450 o         1 MOL     -0.567268
     23 C9        -11.1500    0.7210    4.5990 c3        1 MOL     -0.293757
     24 H8        -10.4170   -1.4720    2.4060 hn        1 MOL      0.289477
     25 H9        -11.3860    0.3860    2.6200 h1        1 MOL      0.042162
     26 H10       -10.3250    0.9560    5.2800 hc        1 MOL      0.079033
     27 H11       -11.9090    1.4920    4.5290 hc        1 MOL      0.079033
     28 H12       -11.6750   -0.1860    4.9160 hc        1 MOL      0.079033
     29 N3         -8.7920    1.1390    1.7730 n         1 MOL     -0.218923
     30 C10        -7.9110    2.0710    1.0120 c3        1 MOL      0.112984
     31 C11        -8.1740    2.0240   -0.4570 c         1 MOL      0.185662
     32 O6         -8.5930    1.0150   -1.0590 o         1 MOL     -0.471070
     33 C12        -6.4860    1.7530    1.3660 c3        1 MOL      0.026452
     34 C13        -6.0330    0.2990    1.3400 c         1 MOL      0.558567
     35 O7         -5.1500   -0.0920    2.1770 o         1 MOL     -0.613346
     36 O8         -6.6710   -0.5010    0.5720 o         1 MOL     -0.613346
     37 H13        -8.7630    0.1770    1.4510 hn        1 MOL      0.159278
     38 H14        -8.1180    3.0900    1.3340 h1        1 MOL      0.027605
     39 H15        -6.2920    2.1350    2.3750 hc        1 MOL     -0.002894
     40 H16        -5.8550    2.2340    0.6220 hc        1 MOL     -0.002894
     41 N4         -8.1370    3.1560   -1.0950 n         1 MOL     -0.202743
     42 C14        -8.2120    3.3740   -2.5530 c3        1 MOL     -0.223466
     43 C15        -6.8050    3.1840   -3.1550 c         1 MOL      0.476792
     44 O9         -6.6750    2.8320   -4.3430 o         1 MOL     -0.539192
     45 H17        -7.8980    3.9980   -0.5890 hn        1 MOL      0.234142
     46 H18        -8.5680    4.3900   -2.7050 h1        1 MOL      0.145750
     47 H19        -8.8480    2.6700   -3.0830 h1        1 MOL      0.145750
     48 N5         -5.7600    3.4520   -2.3570 n         1 MOL     -0.450702
     49 C16        -4.3490    3.5010   -2.8160 c3        1 MOL      0.262624
     50 C17        -3.4260    2.2950   -2.3440 c         1 MOL      0.416810
     51 O10        -3.7790    1.5340   -1.4140 o         1 MOL     -0.525851
     52 C18        -3.8560    4.8540   -2.4340 c3        1 MOL     -0.025733
     53 C19        -4.5600    6.0700   -2.9310 c         1 MOL      0.574606
     54 N6         -4.2290    7.2130   -2.3430 n         1 MOL     -0.775019
     55 O11        -5.5260    6.0210   -3.6880 o         1 MOL     -0.531460
     56 H20        -5.9490    3.7190   -1.4030 hn        1 MOL      0.303475
     57 H21        -4.2710    3.4620   -3.8980 h1        1 MOL      0.009538
     58 H22        -2.8200    5.0280   -2.7150 hc        1 MOL      0.016230
     59 H23        -3.9860    4.8670   -1.3480 hc        1 MOL      0.016230
     60 H24        -3.5290    7.2580   -1.6130 hn        1 MOL      0.364721
     61 H25        -4.6920    8.0410   -2.6760 hn        1 MOL      0.364721
     62 N7         -2.2090    2.1890   -2.8180 n         1 MOL     -0.381703
     63 C20        -1.2380    1.2410   -2.3360 c3        1 MOL     -0.024342
     64 C21         0.2190    1.6340   -2.6050 c         1 MOL      0.663701
     65 O12         0.5350    2.7980   -2.9040 o         1 MOL     -0.554521
     66 H26        -1.9130    2.8290   -3.5410 hn        1 MOL      0.268164
     67 H27        -1.4390    0.3130   -2.8660 h1        1 MOL      0.089109
     68 H28        -1.2230    0.9890   -1.2780 h1        1 MOL      0.089109
     69 N8          1.2870    0.7770   -2.4910 n         1 MOL     -0.658508
     70 C22         1.3650   -0.6890   -2.1850 c3        1 MOL      0.066497
     71 C23         2.5460   -0.9690   -1.2170 c         1 MOL      0.580768
     72 O13         3.5250   -0.2110   -1.2610 o         1 MOL     -0.530827
     73 C24         1.5850   -1.3780   -3.5290 c3        1 MOL      0.380230
     74 C25         1.7340   -2.8770   -3.4320 c3        1 MOL     -0.497346
     75 O14         0.5070   -1.1060   -4.3090 oh        1 MOL     -0.636453
     76 H29         2.1880    1.2300   -2.4340 hn        1 MOL      0.369984
     77 H30         0.4320   -1.0340   -1.7500 h1        1 MOL      0.051131
     78 H31         2.4700   -0.9880   -4.0490 h1        1 MOL      0.007050
     79 H32         0.7090   -1.3660   -5.2150 ho        1 MOL      0.402212
     80 H33         1.9420   -3.1180   -4.4760 hc        1 MOL      0.132579
     81 H34         2.6410   -3.1460   -2.8880 hc        1 MOL      0.132579
     82 H35         0.9320   -3.4320   -2.9470 hc        1 MOL      0.132579
     83 N9          2.4870   -1.9960   -0.4010 n         1 MOL     -0.583961
     84 C26         3.6870   -2.6070    0.2630 c3        1 MOL      0.088738
     85 C27         3.8790   -4.0460   -0.1850 c         1 MOL      0.577365
     86 O15         3.0200   -4.8600    0.1490 o         1 MOL     -0.578926
     87 C28         3.7000   -2.3600    1.7480 c3        1 MOL      0.154820
     88 C29         3.4710   -0.8070    2.1350 c3        1 MOL      0.102123
     89 C30         5.0020   -2.8040    2.4120 c3        1 MOL     -0.273876
     90 C31         3.6000   -0.4480    3.6470 c3        1 MOL     -0.547963
     91 H36         1.6080   -2.4910   -0.3590 hn        1 MOL      0.318493
     92 H37         4.5350   -2.0470   -0.1350 h1        1 MOL      0.020955
     93 H38         2.8090   -2.8990    2.0780 hc        1 MOL     -0.018235
     94 H39         2.4850   -0.5040    1.7930 hc        1 MOL      0.043745
     95 H40         4.1180   -0.1210    1.5860 hc        1 MOL      0.043745
     96 H41         5.0820   -2.7890    3.4950 hc        1 MOL      0.069099
     97 H42         5.0780   -3.8680    2.1590 hc        1 MOL      0.069099
     98 H43         5.8610   -2.2740    2.0080 hc        1 MOL      0.069099
     99 H44         4.6300   -0.2660    3.9650 hc        1 MOL      0.128430
    100 H45         3.2070    0.5450    3.8630 hc        1 MOL      0.128430
    101 H46         3.1760   -1.2530    4.2330 hc        1 MOL      0.128430
    102 N10         4.8620   -4.3800   -1.0170 n         1 MOL     -0.507627
    103 C32         5.6710   -3.3940   -1.8190 c3        1 MOL      0.054099
    104 C33         6.8500   -2.6880   -1.0360 c         1 MOL      0.473430
    105 O16         7.3120   -3.2070   -0.0030 o         1 MOL     -0.515771
    106 C34         5.9540   -3.9520   -3.2220 c3        1 MOL     -0.163357
    107 C35         6.3990   -5.4170   -3.2740 c         1 MOL      0.698231
    108 O17         7.3910   -5.8450   -2.5830 o         1 MOL     -0.714674
    109 O18         5.7900   -6.2430   -3.9760 o         1 MOL     -0.714674
    110 H47         5.1770   -5.3360   -1.1350 hn        1 MOL      0.360095
    111 H48         4.9440   -2.5960   -2.0230 h1        1 MOL      0.029793
    112 H49         6.7480   -3.3730   -3.7070 hc        1 MOL      0.013615
    113 H50         5.0130   -3.8930   -3.7770 hc        1 MOL      0.013615
    114 N11         7.2940   -1.5740   -1.6420 n         1 MOL     -0.450338
    115 C36         8.3720   -0.7730   -1.0530 c3        1 MOL      0.254492
    116 C37         8.3280    0.6230   -1.6440 c         1 MOL      0.385567
    117 O19         8.0270    0.7780   -2.8430 o         1 MOL     -0.515384
    118 C38         9.6610   -1.5020   -1.5210 c3        1 MOL     -0.251704
    119 C39        10.9020   -0.9760   -0.8000 ca        1 MOL      0.091573
    120 C40        11.8130   -0.1610   -1.4490 ca        1 MOL     -0.151262
    121 C41        11.0550   -1.2490    0.6010 ca        1 MOL     -0.151262
    122 C42        12.8310    0.4690   -0.6790 ca        1 MOL     -0.148546
    123 C43        12.1800   -0.7400    1.2770 ca        1 MOL     -0.148546
    124 C44        13.0890    0.1300    0.6780 ca        1 MOL     -0.093401
    125 H51         6.8260   -1.2510   -2.4850 hn        1 MOL      0.296469
    126 H52         8.4020   -0.8140    0.0380 h1        1 MOL      0.061735
    127 H53         9.7220   -1.4650   -2.6070 hc        1 MOL      0.110613
    128 H54         9.5590   -2.5540   -1.2420 hc        1 MOL      0.110613
    129 H55        11.7400    0.1440   -2.4880 ha        1 MOL      0.134128
    130 H56        10.4200   -1.9550    1.1150 ha        1 MOL      0.134128
    131 H57        13.4570    1.2480   -1.0850 ha        1 MOL      0.106061
    132 H58        12.3010   -0.9690    2.3330 ha        1 MOL      0.106061
    133 H59        13.8950    0.5590    1.2410 ha        1 MOL      0.100917
    134 N12         8.8110    1.7040   -0.9250 n         1 MOL     -0.166431
    135 C45         9.1010    1.7390    0.5410 c3        1 MOL      0.295024
    136 C46         7.8720    1.5910    1.4820 c         1 MOL      0.147147
    137 O20         6.9220    0.8250    1.1260 o         1 MOL     -0.451489
    138 C47         9.9710    2.9280    0.7790 c3        1 MOL     -0.068759
    139 C48        10.5500    3.2150   -0.6190 c3        1 MOL      0.055536
    140 C49         9.4210    2.9110   -1.4870 c3        1 MOL      0.015868
    141 H60         9.7600    0.8970    0.7460 h1        1 MOL     -0.034098
    142 H61         9.4380    3.7970    1.1560 hc        1 MOL      0.010832
    143 H62        10.8210    2.7760    1.4510 hc        1 MOL      0.010832
    144 H63        10.8130    4.2550   -0.7910 hc        1 MOL     -0.019929
    145 H64        11.3960    2.5470   -0.7650 hc        1 MOL     -0.019929
    146 H65         8.7120    3.7410   -1.5180 h1        1 MOL      0.042837
    147 H66         9.7630    2.7570   -2.5150 h1        1 MOL      0.042837
    148 N13         7.8520    2.2030    2.6590 n         1 MOL     -0.216228
    149 C50         6.8540    2.2050    3.6780 c3        1 MOL      0.198441
    150 C51         7.4980    2.1740    5.1890 c         1 MOL      0.350864
    151 O21         7.2170    3.1450    5.9890 o         1 MOL     -0.556549
    152 C52         5.9970    3.4840    3.4750 c3        1 MOL      0.052147
    153 C53         5.2290    3.4260    2.1940 c3        1 MOL     -0.341685
    154 C54         4.4760    4.7990    1.8290 c         1 MOL      0.718792
    155 O22         3.3750    4.7930    1.2330 o         1 MOL     -0.708305
    156 O23         5.0600    5.8920    2.0780 o         1 MOL     -0.708305
    157 H67         8.6870    2.6690    2.9880 hn        1 MOL      0.199253
    158 H68         6.3050    1.2770    3.5310 h1        1 MOL      0.055430
    159 H69         6.5430    4.4110    3.6400 hc        1 MOL     -0.001515
    160 H70         5.2290    3.5120    4.2510 hc        1 MOL     -0.001515
    161 H71         4.5340    2.5870    2.2790 hc        1 MOL      0.088933
    162 H72         5.9990    3.2960    1.4310 hc        1 MOL      0.088933
    163 N14         8.2490    1.2260    5.5800 n         1 MOL     -0.324913
    164 C55         8.5600   -0.0220    4.9070 c3        1 MOL     -0.117089
    165 H73         9.6290   -0.0660    4.7010 h1        1 MOL      0.080908
    166 H74         8.2790   -0.8600    5.5460 h1        1 MOL      0.080908
    167 H75         8.0060   -0.0790    3.9700 h1        1 MOL      0.080908
    168 H76         8.3090    1.2660    6.5860 hn        1 MOL      0.274345
    169 Ca1        -7.8620   -1.6390   -1.4800 Ca        1 MOL      1.710808
    170 O24        -5.4880   -2.5830   -1.2500 oh        1 MOL     -0.796893
    171 H77        -5.3770   -2.4390   -0.3130 ho        1 MOL      0.393260
    172 H78        -4.8000   -2.0550   -1.6640 ho        1 MOL      0.393260
    173 O25        -9.4200   -0.6810   -3.3450 oh        1 MOL     -0.796893
    174 H79        -8.9450   -0.3210   -4.0920 ho        1 MOL      0.393260
    175 H80       -10.2930   -0.3150   -3.4120 ho        1 MOL      0.393260
    176 O26        -5.8540    0.0490   -2.2660 oh        1 MOL     -0.796893
    177 H81        -5.4220   -0.0440   -3.1160 ho        1 MOL      0.393260
    178 H82        -5.1900    0.4560   -1.7050 ho        1 MOL      0.393260
    179 O27       -10.1270   -3.5030   -1.8600 oh        1 MOL     -0.796893
    180 H83       -10.7060   -3.7840   -2.5660 ho        1 MOL      0.393260
    181 H84       -10.4760   -3.9210   -1.0720 ho        1 MOL      0.393260
    182 O28        -7.2670   -3.1230   -3.5360 oh        1 MOL     -0.796893
    183 H85        -6.4660   -3.5270   -3.8700 ho        1 MOL      0.393260
    184 H86        -7.9700   -3.7040   -3.8330 ho        1 MOL      0.393260
@<TRIPOS>BOND
     1    1    2 1   
     2    1    4 1   
     3    1    5 1   
     4    1    6 1   
     5    2    3 2   
     6    2    7 1   
     7    7    8 1   
     8    7   15 1   
     9    8    9 1   
    10    8   11 1   
    11    8   16 1   
    12    9   10 2   
    13    9   19 1   
    14   11   12 1   
    15   11   17 1   
    16   11   18 1   
    17   12   13 1   
    18   12   14 1   
    19   19   20 1   
    20   19   24 1   
    21   20   21 1   
    22   20   23 1   
    23   20   25 1   
    24   21   22 2   
    25   21   29 1   
    26   23   26 1   
    27   23   27 1   
    28   23   28 1   
    29   29   30 1   
    30   29   37 1   
    31   30   31 1   
    32   30   33 1   
    33   30   38 1   
    34   31   32 2   
    35   31   41 1   
    36   33   34 1   
    37   33   39 1   
    38   33   40 1   
    39   34   35 1   
    40   34   36 1   
    41   41   42 1   
    42   41   45 1   
    43   42   43 1   
    44   42   46 1   
    45   42   47 1   
    46   43   44 2   
    47   43   48 1   
    48   48   49 1   
    49   48   56 1   
    50   49   50 1   
    51   49   52 1   
    52   49   57 1   
    53   50   51 2   
    54   50   62 1   
    55   52   53 1   
    56   52   58 1   
    57   52   59 1   
    58   53   54 1   
    59   53   55 2   
    60   54   60 1   
    61   54   61 1   
    62   62   63 1   
    63   62   66 1   
    64   63   64 1   
    65   63   67 1   
    66   63   68 1   
    67   64   65 2   
    68   64   69 1   
    69   69   70 1   
    70   69   76 1   
    71   70   71 1   
    72   70   73 1   
    73   70   77 1   
    74   71   72 2   
    75   71   83 1   
    76   73   74 1   
    77   73   75 1   
    78   73   78 1   
    79   74   80 1   
    80   74   81 1   
    81   74   82 1   
    82   75   79 1   
    83   83   84 1   
    84   83   91 1   
    85   84   85 1   
    86   84   87 1   
    87   84   92 1   
    88   85   86 2   
    89   85  102 1   
    90   87   88 1   
    91   87   89 1   
    92   87   93 1   
    93   88   90 1   
    94   88   94 1   
    95   88   95 1   
    96   89   96 1   
    97   89   97 1   
    98   89   98 1   
    99   90   99 1   
   100   90  100 1   
   101   90  101 1   
   102  102  103 1   
   103  102  110 1   
   104  103  104 1   
   105  103  106 1   
   106  103  111 1   
   107  104  105 2   
   108  104  114 1   
   109  106  107 1   
   110  106  112 1   
   111  106  113 1   
   112  107  108 1   
   113  107  109 1   
   114  114  115 1   
   115  114  125 1   
   116  115  116 1   
   117  115  118 1   
   118  115  126 1   
   119  116  117 2   
   120  116  134 1   
   121  118  119 1   
   122  118  127 1   
   123  118  128 1   
   124  119  120 ar  
   125  119  121 ar  
   126  120  122 ar  
   127  120  129 1   
   128  121  123 ar  
   129  121  130 1   
   130  122  124 ar  
   131  122  131 1   
   132  123  124 ar  
   133  123  132 1   
   134  124  133 1   
   135  134  135 1   
   136  134  140 1   
   137  135  136 1   
   138  135  138 1   
   139  135  141 1   
   140  136  137 2   
   141  136  148 1   
   142  138  139 1   
   143  138  142 1   
   144  138  143 1   
   145  139  140 1   
   146  139  144 1   
   147  139  145 1   
   148  140  146 1   
   149  140  147 1   
   150  148  149 1   
   151  148  157 1   
   152  149  150 1   
   153  149  152 1   
   154  149  158 1   
   155  150  151 2   
   156  150  163 1   
   157  152  153 1   
   158  152  159 1   
   159  152  160 1   
   160  153  154 1   
   161  153  161 1   
   162  153  162 1   
   163  154  155 1   
   164  154  156 1   
   165  163  164 1   
   166  163  168 1   
   167  164  165 1   
   168  164  166 1   
   169  164  167 1   
   170  170  171 1   
   171  170  172 1   
   172  173  174 1   
   173  173  175 1   
   174  176  177 1   
   175  176  178 1   
   176  179  180 1   
   177  179  181 1   
   178  182  183 1   
   179  182  184 1   
@<TRIPOS>SUBSTRUCTURE
     1 MOL         1 TEMP              0 ****  ****    0 ROOT
