@<TRIPOS>MOLECULE
MOL
  186   183     1     0     0
SMALL
resp


@<TRIPOS>ATOM
      1 C1        -12.2470    4.5190    4.5990 c3        1 MOL     -0.475959
      2 C2        -12.3230    3.4920    3.4950 c         1 MOL      0.630241
      3 O1        -13.2900    2.7280    3.4000 o         1 MOL     -0.577860
      4 H1        -11.2200    4.5920    4.9560 hc        1 MOL      0.137223
      5 H2        -12.5690    5.4880    4.2170 hc        1 MOL      0.137223
      6 H3        -12.8970    4.2180    5.4210 hc        1 MOL      0.137223
      7 N1        -11.3840    3.5570    2.5400 n         1 MOL     -0.245801
      8 C3        -11.4990    2.9210    1.2380 c3        1 MOL     -0.297357
      9 C4        -10.3760    1.9450    0.8600 c         1 MOL      0.608652
     10 O2         -9.1950    2.3360    0.9990 o         1 MOL     -0.779877
     11 C5        -11.6410    4.0080    0.1740 c3        1 MOL      0.017499
     12 C6        -10.9340    5.3100    0.4330 c         1 MOL      0.731720
     13 O3         -9.7000    5.3780    0.4980 o         1 MOL     -0.727370
     14 O4        -11.6090    6.3410    0.6810 o         1 MOL     -0.727370
     15 H4        -10.6100    4.1890    2.6440 hn        1 MOL      0.175095
     16 H5        -12.4120    2.3300    1.2050 h1        1 MOL      0.154431
     17 H6        -12.7130    4.1540    0.0570 hc        1 MOL      0.039181
     18 H7        -11.2390    3.5110   -0.7140 hc        1 MOL      0.039181
     19 N2        -10.6740    0.7200    0.4030 n         1 MOL     -0.220649
     20 C7         -9.7580   -0.4880    0.3380 c3        1 MOL     -0.064787
     21 C8         -8.6840   -0.4320   -0.7540 c         1 MOL      0.394163
     22 O5         -8.6000   -1.2760   -1.6920 o         1 MOL     -0.468335
     23 C9        -10.7030   -1.6720    0.3410 c3        1 MOL      0.039835
     24 C10       -11.7400   -1.6440   -0.7940 c3        1 MOL     -0.197004
     25 C11       -12.3440   -3.0540   -0.9240 c3        1 MOL     -0.266143
     26 C12       -12.9820   -3.1450   -2.2880 c3        1 MOL     -0.059117
     27 N3        -13.6660   -4.4180   -2.5560 n4        1 MOL     -0.172915
     28 H8        -11.6580    0.4890    0.2790 hn        1 MOL      0.147209
     29 H9         -9.2350   -0.3890    1.2940 h1        1 MOL      0.060299
     30 H10       -11.2890   -1.6980    1.2530 hc        1 MOL      0.031866
     31 H11       -10.1540   -2.6130    0.3640 hc        1 MOL      0.031866
     32 H12       -11.1720   -1.4390   -1.7030 hc        1 MOL      0.114469
     33 H13       -12.4780   -0.8680   -0.6030 hc        1 MOL      0.114469
     34 H14       -13.0730   -3.1100   -0.1150 hc        1 MOL      0.138228
     35 H15       -11.5130   -3.7610   -0.9160 hc        1 MOL      0.138228
     36 H16       -12.2090   -2.9590   -3.0420 hx        1 MOL      0.123390
     37 H17       -13.8350   -2.4640   -2.2430 hx        1 MOL      0.123390
     38 H18       -13.0210   -5.1250   -2.8700 hn        1 MOL      0.246560
     39 H19       -14.1530   -4.7290   -1.7280 hn        1 MOL      0.246560
     40 H20       -14.3470   -4.3070   -3.2940 hn        1 MOL      0.246560
     41 N4         -7.7810    0.5330   -0.6150 n         1 MOL      0.029160
     42 C13        -6.4890    0.7690   -1.3710 c3        1 MOL     -0.746101
     43 C14        -5.3970    1.3580   -0.4420 c         1 MOL      0.670776
     44 O6         -5.6820    2.1580    0.4850 o         1 MOL     -0.716017
     45 C15        -6.7010    1.6290   -2.6120 c3        1 MOL     -0.115536
     46 C16        -7.6440    2.8630   -2.5640 c         1 MOL      0.598669
     47 O7         -8.2330    3.2670   -3.6190 o         1 MOL     -0.665937
     48 O8         -7.6800    3.4720   -1.5020 o         1 MOL     -0.665937
     49 H21        -7.9890    1.1700    0.1450 hn        1 MOL      0.284504
     50 H22        -6.1530   -0.2190   -1.6890 h1        1 MOL      0.258906
     51 H23        -7.1270    1.0770   -3.4410 hc        1 MOL      0.136956
     52 H24        -5.7110    1.8540   -3.0120 hc        1 MOL      0.136956
     53 N5         -4.1210    1.0980   -0.7570 n         1 MOL     -0.457436
     54 C17        -3.6170   -0.0310   -1.5960 c3        1 MOL     -0.012769
     55 C18        -3.9340   -1.4570   -1.0920 c         1 MOL      0.647174
     56 O9         -4.8370   -1.6640   -0.2310 o         1 MOL     -0.524647
     57 H25        -3.4630    1.3480   -0.0300 hn        1 MOL      0.325884
     58 H26        -2.5300    0.0620   -1.6600 h1        1 MOL      0.087449
     59 H27        -4.1000    0.0630   -2.5710 h1        1 MOL      0.087449
     60 N6         -3.0880   -2.4700   -1.4560 n         1 MOL     -0.601035
     61 C19        -3.5240   -3.8780   -1.3250 c3        1 MOL      0.149631
     62 C20        -2.2940   -4.8360   -1.4620 c         1 MOL      0.498129
     63 O10        -1.2760   -4.4890   -2.0510 o         1 MOL     -0.469632
     64 C21        -4.5970   -4.1880   -2.2970 c3        1 MOL     -0.278634
     65 C22        -4.3300   -3.7750   -3.7840 c         1 MOL      0.739484
     66 O11        -3.9420   -4.6100   -4.6490 o         1 MOL     -0.659599
     67 O12        -4.5960   -2.6030   -4.1250 o         1 MOL     -0.659599
     68 H28        -2.4000   -2.2690   -2.1580 hn        1 MOL      0.314615
     69 H29        -3.8560   -4.0950   -0.3140 h1        1 MOL      0.030675
     70 H30        -5.4480   -3.5630   -2.0170 hc        1 MOL      0.057364
     71 H31        -4.9700   -5.2090   -2.1950 hc        1 MOL      0.057364
     72 N7         -2.3430   -6.0420   -0.8800 n         1 MOL     -0.349371
     73 C23        -1.2130   -7.0000   -0.8720 c3        1 MOL     -0.294660
     74 C24        -0.0170   -6.4920   -0.1480 c         1 MOL      0.598959
     75 O13         1.0380   -7.1380   -0.1800 o         1 MOL     -0.569810
     76 H32        -3.2840   -6.1850   -0.5170 hn        1 MOL      0.249747
     77 H33        -1.0510   -7.3180   -1.8970 h1        1 MOL      0.174846
     78 H34        -1.4760   -7.8850   -0.2970 h1        1 MOL      0.174846
     79 N8         -0.0010   -5.3120    0.5490 n         1 MOL     -0.443319
     80 C25         1.1490   -4.7590    1.4230 c3        1 MOL      0.119647
     81 C26         1.3620   -3.2990    1.1830 c         1 MOL      0.535488
     82 O14         0.3670   -2.6510    0.8230 o         1 MOL     -0.509605
     83 C27         0.9450   -5.0980    2.8790 c3        1 MOL      0.263313
     84 C28        -0.3360   -4.4230    3.4370 c3        1 MOL     -0.197823
     85 O15         0.7860   -6.4510    3.1300 oh        1 MOL     -0.595923
     86 H35        -0.7920   -4.6930    0.5570 hn        1 MOL      0.251168
     87 H36         2.0440   -5.3110    1.1440 h1        1 MOL      0.024480
     88 H37         1.8370   -4.6930    3.3480 h1        1 MOL     -0.019689
     89 H38         1.3690   -6.9740    2.5860 ho        1 MOL      0.396503
     90 H39        -1.1880   -4.4990    2.7710 hc        1 MOL      0.059030
     91 H40        -0.5380   -4.8240    4.4230 hc        1 MOL      0.059030
     92 H41        -0.2290   -3.3570    3.6320 hc        1 MOL      0.059030
     93 N9          2.6040   -2.7610    1.3630 n         1 MOL     -0.441825
     94 C29         2.9830   -1.3580    0.9970 c3        1 MOL      0.023329
     95 C30         4.3770   -1.1930    0.4290 c         1 MOL      0.590242
     96 O16         4.5340   -0.4180   -0.5250 o         1 MOL     -0.497817
     97 C31         2.8490   -0.4030    2.1720 c3        1 MOL      0.173492
     98 C32         1.9080   -0.8950    3.3440 c3        1 MOL      0.031681
     99 C33         2.5170    0.9870    1.6520 c3        1 MOL     -0.330700
    100 C34         1.8190    0.1620    4.4430 c3        1 MOL     -0.189766
    101 H42         3.3310   -3.3480    1.7510 hn        1 MOL      0.226089
    102 H43         2.3570   -1.0340    0.1690 h1        1 MOL      0.092059
    103 H44         3.8080   -0.3830    2.6830 hc        1 MOL     -0.036586
    104 H45         2.4060   -1.7910    3.7400 hc        1 MOL     -0.003210
    105 H46         0.9530   -1.1210    2.8790 hc        1 MOL     -0.003210
    106 H47         2.6440    1.7420    2.4260 hc        1 MOL      0.085990
    107 H48         3.0810    1.1250    0.7300 hc        1 MOL      0.085990
    108 H49         1.4500    0.9710    1.4050 hc        1 MOL      0.085990
    109 H50         1.3800   -0.3000    5.3250 hc        1 MOL      0.049422
    110 H51         2.7710    0.6080    4.6960 hc        1 MOL      0.049422
    111 H52         1.2660    1.0620    4.1670 hc        1 MOL      0.049422
    112 N10         5.3170   -1.9810    0.9500 n         1 MOL     -0.557260
    113 C35         6.6350   -2.2010    0.3820 c3        1 MOL      0.007527
    114 C36         7.7750   -2.1400    1.3560 c         1 MOL      0.536556
    115 O17         7.5770   -2.3520    2.5290 o         1 MOL     -0.539770
    116 C37         6.5970   -3.5520   -0.4050 c3        1 MOL      0.310758
    117 C38         5.4750   -3.4460   -1.4840 c3        1 MOL     -0.301086
    118 O18         7.8250   -3.8670   -1.0160 oh        1 MOL     -0.572916
    119 H53         5.1200   -2.4210    1.8400 hn        1 MOL      0.306692
    120 H54         6.8450   -1.4700   -0.4010 h1        1 MOL      0.082711
    121 H55         6.3650   -4.4100    0.2280 h1        1 MOL      0.052081
    122 H56         7.9540   -3.0890   -1.5620 ho        1 MOL      0.354973
    123 H57         5.5230   -2.4670   -1.9530 hc        1 MOL      0.088343
    124 H58         5.7150   -4.1540   -2.2740 hc        1 MOL      0.088343
    125 H59         4.4980   -3.5580   -1.0180 hc        1 MOL      0.088343
    126 N11         9.0160   -2.1960    0.8850 n         1 MOL     -0.376155
    127 C39        10.2240   -1.9960    1.6570 c3        1 MOL     -0.051424
    128 C40        10.7100   -0.5180    1.4450 c         1 MOL      0.691691
    129 O19        11.2690   -0.0540    2.3700 o         1 MOL     -0.586260
    130 C41        11.2900   -2.9700    1.2490 c3        1 MOL      0.300970
    131 C42        12.6960   -2.7460    1.7500 c3        1 MOL     -0.351195
    132 O20        11.5110   -2.9480   -0.1480 oh        1 MOL     -0.609525
    133 H60         9.1370   -2.1630   -0.1160 hn        1 MOL      0.246916
    134 H61        10.0890   -2.0790    2.7370 h1        1 MOL      0.112040
    135 H62        10.8980   -3.9550    1.5140 h1        1 MOL      0.079236
    136 H63        12.2680   -2.3850   -0.3170 ho        1 MOL      0.356988
    137 H64        13.1520   -1.9180    1.1960 hc        1 MOL      0.086243
    138 H65        12.7720   -2.6830    2.8300 hc        1 MOL      0.086243
    139 H66        13.2340   -3.6410    1.4290 hc        1 MOL      0.086243
    140 N12        10.3980    0.2260    0.3810 n         1 MOL     -0.485058
    141 C43        10.4850    1.7230    0.2650 c3        1 MOL     -0.016715
    142 C44         9.3900    2.1990   -0.7250 c         1 MOL      0.552877
    143 O21         8.8970    1.4330   -1.4690 o         1 MOL     -0.464939
    144 C45        11.8700    2.1630   -0.1450 c3        1 MOL     -0.011310
    145 C46        13.0370    1.8500    0.6910 c3        1 MOL     -0.019695
    146 C47        14.1980    2.7100    0.2520 c3        1 MOL     -0.325015
    147 C48        14.6390    2.3680   -1.2110 c3        1 MOL     -0.055548
    148 N13        15.3260    1.0310   -1.2960 n4        1 MOL     -0.260804
    149 H67         9.8200   -0.1600   -0.3480 hn        1 MOL      0.208159
    150 H68        10.3600    2.1190    1.2720 h1        1 MOL      0.098170
    151 H69        11.7950    3.2450   -0.2210 hc        1 MOL      0.023303
    152 H70        11.9900    1.7650   -1.1600 hc        1 MOL      0.023303
    153 H71        13.2290    0.7790    0.5880 hc        1 MOL      0.048045
    154 H72        12.7550    2.1150    1.7120 hc        1 MOL      0.048045
    155 H73        15.0580    2.5200    0.8980 hc        1 MOL      0.146641
    156 H74        13.8230    3.7240    0.4090 hc        1 MOL      0.146641
    157 H75        15.4050    3.1070   -1.4590 hx        1 MOL      0.129617
    158 H76        13.7830    2.5010   -1.8770 hx        1 MOL      0.129617
    159 H77        15.8050    0.9820   -2.1780 hn        1 MOL      0.252898
    160 H78        16.0030    0.8340   -0.5660 hn        1 MOL      0.252898
    161 H79        14.6230    0.3130   -1.2260 hn        1 MOL      0.252898
    162 N14         8.9170    3.4610   -0.6130 n         1 MOL     -0.476880
    163 C49         7.9830    4.1050   -1.5250 c3        1 MOL      0.168203
    164 C50         6.5360    3.6010   -1.2280 c         1 MOL      0.362296
    165 O22         5.9590    2.9570   -2.1610 o         1 MOL     -0.507311
    166 C51         8.1720    5.5950   -1.5180 c3        1 MOL      0.087586
    167 C52         9.5210    6.1590   -1.9680 c3        1 MOL     -0.375402
    168 C53         9.4570    7.6830   -2.3160 c         1 MOL      0.736228
    169 O23         9.8480    8.6260   -1.6050 o         1 MOL     -0.643089
    170 O24         8.9030    7.9440   -3.3950 o         1 MOL     -0.643089
    171 H80         9.2990    4.0640    0.1080 hn        1 MOL      0.272591
    172 H81         8.0900    3.8300   -2.5810 h1        1 MOL      0.066583
    173 H82         7.9170    6.0680   -0.5710 hc        1 MOL      0.029995
    174 H83         7.4200    5.9710   -2.2030 hc        1 MOL      0.029995
    175 H84         9.8060    5.5120   -2.7990 hc        1 MOL      0.050389
    176 H85        10.3720    5.9160   -1.3260 hc        1 MOL      0.050389
    177 N15         5.8910    3.8240   -0.0660 n         1 MOL     -0.343445
    178 C54         6.3290    4.6130    1.1180 c3        1 MOL     -0.061456
    179 H86         7.3610    4.3600    1.3620 h1        1 MOL      0.055803
    180 H87         6.2610    5.6780    0.8920 h1        1 MOL      0.055803
    181 H88         5.6880    4.3810    1.9680 h1        1 MOL      0.055803
    182 H89         4.9610    3.4400   -0.0340 hn        1 MOL      0.284770
    183 Ca1        -7.1440    4.4090    0.8550 Ca        1 MOL      1.728757
    184 O25        -7.3850    2.8770    3.1510 oh        1 MOL     -0.804732
    185 H90        -7.7420    2.0460    2.8310 ho        1 MOL      0.420245
    186 H91        -7.5510    2.8610    4.1000 ho        1 MOL      0.420245
@<TRIPOS>BOND
     1    1    2 1   
     2    1    4 1   
     3    1    5 1   
     4    1    6 1   
     5    2    3 2   
     6    2    7 1   
     7    7    8 1   
     8    7   15 1   
     9    8    9 1   
    10    8   11 1   
    11    8   16 1   
    12    9   10 2   
    13    9   19 1   
    14   11   12 1   
    15   11   17 1   
    16   11   18 1   
    17   12   13 1   
    18   12   14 1   
    19   19   20 1   
    20   19   28 1   
    21   20   21 1   
    22   20   23 1   
    23   20   29 1   
    24   21   22 2   
    25   21   41 1   
    26   23   24 1   
    27   23   30 1   
    28   23   31 1   
    29   24   25 1   
    30   24   32 1   
    31   24   33 1   
    32   25   26 1   
    33   25   34 1   
    34   25   35 1   
    35   26   27 1   
    36   26   36 1   
    37   26   37 1   
    38   27   38 1   
    39   27   39 1   
    40   27   40 1   
    41   41   42 1   
    42   41   49 1   
    43   42   43 1   
    44   42   45 1   
    45   42   50 1   
    46   43   44 2   
    47   43   53 1   
    48   45   46 1   
    49   45   51 1   
    50   45   52 1   
    51   46   47 1   
    52   46   48 1   
    53   53   54 1   
    54   53   57 1   
    55   54   55 1   
    56   54   58 1   
    57   54   59 1   
    58   55   56 2   
    59   55   60 1   
    60   60   61 1   
    61   60   68 1   
    62   61   62 1   
    63   61   64 1   
    64   61   69 1   
    65   62   63 2   
    66   62   72 1   
    67   64   65 1   
    68   64   70 1   
    69   64   71 1   
    70   65   66 1   
    71   65   67 1   
    72   72   73 1   
    73   72   76 1   
    74   73   74 1   
    75   73   77 1   
    76   73   78 1   
    77   74   75 2   
    78   74   79 1   
    79   79   80 1   
    80   79   86 1   
    81   80   81 1   
    82   80   83 1   
    83   80   87 1   
    84   81   82 2   
    85   81   93 1   
    86   83   84 1   
    87   83   85 1   
    88   83   88 1   
    89   84   90 1   
    90   84   91 1   
    91   84   92 1   
    92   85   89 1   
    93   93   94 1   
    94   93  101 1   
    95   94   95 1   
    96   94   97 1   
    97   94  102 1   
    98   95   96 2   
    99   95  112 1   
   100   97   98 1   
   101   97   99 1   
   102   97  103 1   
   103   98  100 1   
   104   98  104 1   
   105   98  105 1   
   106   99  106 1   
   107   99  107 1   
   108   99  108 1   
   109  100  109 1   
   110  100  110 1   
   111  100  111 1   
   112  112  113 1   
   113  112  119 1   
   114  113  114 1   
   115  113  116 1   
   116  113  120 1   
   117  114  115 2   
   118  114  126 1   
   119  116  117 1   
   120  116  118 1   
   121  116  121 1   
   122  117  123 1   
   123  117  124 1   
   124  117  125 1   
   125  118  122 1   
   126  126  127 1   
   127  126  133 1   
   128  127  128 1   
   129  127  130 1   
   130  127  134 1   
   131  128  129 2   
   132  128  140 1   
   133  130  131 1   
   134  130  132 1   
   135  130  135 1   
   136  131  137 1   
   137  131  138 1   
   138  131  139 1   
   139  132  136 1   
   140  140  141 1   
   141  140  149 1   
   142  141  142 1   
   143  141  144 1   
   144  141  150 1   
   145  142  143 2   
   146  142  162 1   
   147  144  145 1   
   148  144  151 1   
   149  144  152 1   
   150  145  146 1   
   151  145  153 1   
   152  145  154 1   
   153  146  147 1   
   154  146  155 1   
   155  146  156 1   
   156  147  148 1   
   157  147  157 1   
   158  147  158 1   
   159  148  159 1   
   160  148  160 1   
   161  148  161 1   
   162  162  163 1   
   163  162  171 1   
   164  163  164 1   
   165  163  166 1   
   166  163  172 1   
   167  164  165 2   
   168  164  177 1   
   169  166  167 1   
   170  166  173 1   
   171  166  174 1   
   172  167  168 1   
   173  167  175 1   
   174  167  176 1   
   175  168  169 1   
   176  168  170 1   
   177  177  178 1   
   178  177  182 1   
   179  178  179 1   
   180  178  180 1   
   181  178  181 1   
   182  184  185 1   
   183  184  186 1   
@<TRIPOS>SUBSTRUCTURE
     1 MOL         1 TEMP              0 ****  ****    0 ROOT
