@<TRIPOS>MOLECULE
MOL
  181   177     1     0     0
SMALL
resp


@<TRIPOS>ATOM
      1 C1         -3.4620   -1.8820   -4.1470 c3        1 MOL     -0.389164
      2 C2         -4.7630   -1.2740   -3.5600 c         1 MOL      0.647934
      3 O1         -4.8180   -0.0970   -3.2630 o         1 MOL     -0.554646
      4 H1         -2.9590   -1.1360   -4.7630 hc        1 MOL      0.097761
      5 H2         -2.8030   -2.1860   -3.3350 hc        1 MOL      0.097761
      6 H3         -3.7090   -2.7490   -4.7590 hc        1 MOL      0.097761
      7 N1         -5.8420   -2.0750   -3.4150 n         1 MOL     -0.503479
      8 C3         -7.0800   -1.6520   -2.8300 c3        1 MOL      0.035745
      9 C4         -7.0210   -1.5730   -1.3320 c         1 MOL      0.840680
     10 O2         -6.7910   -2.5200   -0.5880 o         1 MOL     -0.635150
     11 C5         -8.2640   -2.4680   -3.3400 c3        1 MOL     -0.285003
     12 C6         -9.6630   -2.1010   -2.7380 c         1 MOL      0.740480
     13 O3         -9.9790   -0.8850   -2.6190 o         1 MOL     -0.728229
     14 O4        -10.4280   -3.0000   -2.4000 o         1 MOL     -0.728229
     15 H4         -5.5950   -3.0470   -3.5430 hn        1 MOL      0.282295
     16 H5         -7.2790   -0.6590   -3.2130 h1        1 MOL      0.061378
     17 H6         -7.9240   -3.4960   -3.2310 hc        1 MOL      0.040251
     18 H7         -8.4440   -2.4030   -4.4090 hc        1 MOL      0.040251
     19 N2         -7.2920   -0.3000   -0.8020 n         1 MOL     -0.561633
     20 C7         -7.3070   -0.0890    0.6140 c3        1 MOL      0.215819
     21 C8         -5.8160    0.1130    1.0040 c         1 MOL      0.504079
     22 O5         -4.9960    0.8840    0.4430 o         1 MOL     -0.553391
     23 C9         -8.0830    1.1660    1.0760 c3        1 MOL     -0.258001
     24 H8         -7.5250    0.4410   -1.4390 hn        1 MOL      0.290005
     25 H9         -7.7240   -0.9200    1.1790 h1        1 MOL      0.066619
     26 H10        -7.9560    1.3390    2.1440 hc        1 MOL      0.072366
     27 H11        -7.7590    2.0960    0.6020 hc        1 MOL      0.072366
     28 H12        -9.1440    1.0510    0.8600 hc        1 MOL      0.072366
     29 N3         -5.4470   -0.5670    2.0850 n         1 MOL     -0.606464
     30 C10        -4.2000   -0.3710    2.8920 c3        1 MOL     -0.172639
     31 C11        -4.1050    0.9140    3.6200 c         1 MOL      0.623396
     32 O6         -3.3180    1.0270    4.6120 o         1 MOL     -0.558714
     33 C12        -4.0210   -1.5670    3.8730 c3        1 MOL     -0.181349
     34 C13        -4.0740   -2.8190    3.1820 c         1 MOL      0.860467
     35 O7         -5.0350   -3.6050    3.4300 o         1 MOL     -0.783159
     36 O8         -3.1370   -3.1910    2.4580 o         1 MOL     -0.783159
     37 H13        -6.0680   -1.2620    2.4770 hn        1 MOL      0.337674
     38 H14        -3.4150   -0.3850    2.1290 h1        1 MOL      0.136141
     39 H15        -4.7840   -1.6390    4.6500 hc        1 MOL      0.069247
     40 H16        -3.0620   -1.4990    4.3880 hc        1 MOL      0.069247
     41 N4         -4.9330    1.9610    3.3430 n         1 MOL     -0.239898
     42 C14        -5.1200    3.2320    4.1690 c3        1 MOL     -0.381578
     43 C15        -4.0130    4.3060    4.1220 c         1 MOL      0.616134
     44 O9         -3.9910    5.2700    4.8920 o         1 MOL     -0.549284
     45 H17        -5.4830    1.9230    2.4980 hn        1 MOL      0.290346
     46 H18        -4.9890    2.9450    5.2150 h1        1 MOL      0.147016
     47 H19        -6.0780    3.7170    3.9630 h1        1 MOL      0.147016
     48 N5         -3.0410    4.1060    3.2270 n         1 MOL     -0.381737
     49 C16        -1.8570    4.9650    2.9460 c3        1 MOL      0.215476
     50 C17        -1.7380    5.2200    1.4390 c         1 MOL      0.385843
     51 O10        -2.0170    4.2660    0.6440 o         1 MOL     -0.445338
     52 C18        -0.5400    4.4520    3.6990 c3        1 MOL     -0.191557
     53 C19        -0.7070    4.5460    5.2540 c         1 MOL      0.643423
     54 N6         -0.7570    3.4230    5.9050 n         1 MOL     -0.788131
     55 O11        -0.8220    5.6110    5.8580 o         1 MOL     -0.565367
     56 H20        -3.2160    3.2800    2.6680 hn        1 MOL      0.199434
     57 H21        -2.0410    5.9490    3.3730 h1        1 MOL      0.004750
     58 H22         0.3530    5.0510    3.5120 hc        1 MOL      0.059346
     59 H23        -0.3430    3.4340    3.3800 hc        1 MOL      0.059346
     60 H24        -0.8100    2.5680    5.3650 hn        1 MOL      0.378455
     61 H25        -0.8990    3.4740    6.9010 hn        1 MOL      0.378455
     62 N7         -1.2900    6.3550    0.9450 n         1 MOL     -0.409604
     63 C20        -0.9160    6.6300   -0.4190 c3        1 MOL     -0.030890
     64 C21         0.6300    6.4550   -0.6400 c         1 MOL      0.521231
     65 O12         1.4310    6.0530    0.2710 o         1 MOL     -0.482240
     66 H26        -1.0270    7.0960    1.5710 hn        1 MOL      0.287946
     67 H27        -1.1270    7.6830   -0.6210 h1        1 MOL      0.081208
     68 H28        -1.4650    5.9850   -1.1120 h1        1 MOL      0.081208
     69 N8          1.1280    6.7600   -1.8320 n         1 MOL     -0.347629
     70 C22         2.5610    6.7740   -2.1780 c3        1 MOL     -0.331725
     71 C23         3.1450    5.3830   -2.4360 c         1 MOL      0.593121
     72 O13         4.3420    5.2280   -2.3120 o         1 MOL     -0.582380
     73 C24         2.7510    7.5960   -3.5240 c3        1 MOL      0.600054
     74 C25         1.9290    7.3490   -4.7960 c3        1 MOL     -0.407883
     75 O14         2.5300    8.8960   -3.1370 oh        1 MOL     -0.675752
     76 H29         0.6050    7.3570   -2.4500 hn        1 MOL      0.199651
     77 H30         3.1880    7.2080   -1.4010 h1        1 MOL      0.160194
     78 H31         3.7960    7.4080   -3.7720 h1        1 MOL      0.001178
     79 H32         1.6430    8.9430   -2.7690 ho        1 MOL      0.399304
     80 H33         0.8790    7.3090   -4.5200 hc        1 MOL      0.090566
     81 H34         2.1180    8.2100   -5.4480 hc        1 MOL      0.090566
     82 H35         2.3010    6.4660   -5.3070 hc        1 MOL      0.090566
     83 N9          2.3440    4.3910   -2.8050 n         1 MOL     -0.193066
     84 C26         2.6780    2.9880   -2.9560 c3        1 MOL     -0.018405
     85 C27         1.9010    2.0740   -2.0570 c         1 MOL      0.396247
     86 O15         0.7050    2.2850   -1.7760 o         1 MOL     -0.487830
     87 C28         2.6010    2.5380   -4.4150 c3        1 MOL      0.183598
     88 C29         1.3510    2.9530   -5.2520 c3        1 MOL      0.359344
     89 C30         3.8670    3.0750   -5.0430 c3        1 MOL     -0.237363
     90 C31         1.1630    2.2060   -6.5760 c3        1 MOL     -0.461361
     91 H36         1.3610    4.5660   -2.9360 hn        1 MOL      0.119319
     92 H37         3.7060    2.9160   -2.5850 h1        1 MOL      0.062342
     93 H38         2.7100    1.4500   -4.3850 hc        1 MOL     -0.044537
     94 H39         1.3800    4.0150   -5.5200 hc        1 MOL     -0.054293
     95 H40         0.4500    2.8030   -4.6580 hc        1 MOL     -0.054293
     96 H41         4.7450    2.6930   -4.5160 hc        1 MOL      0.036071
     97 H42         3.9080    2.7780   -6.0900 hc        1 MOL      0.036071
     98 H43         3.8760    4.1670   -4.9980 hc        1 MOL      0.036071
     99 H44         0.1240    2.4080   -6.8310 hc        1 MOL      0.100478
    100 H45         1.8700    2.5220   -7.3410 hc        1 MOL      0.100478
    101 H46         1.2210    1.1270   -6.4650 hc        1 MOL      0.100478
    102 N10         2.4990    1.0030   -1.6760 n         1 MOL     -0.302247
    103 C32         1.9420   -0.0440   -0.7020 c3        1 MOL      0.001457
    104 C33         2.9540   -0.5980    0.3100 c         1 MOL      0.481265
    105 O16         2.9120   -1.7270    0.7820 o         1 MOL     -0.462448
    106 C34         1.2880   -1.2390   -1.5240 c3        1 MOL      0.041189
    107 C35         0.1340   -1.9420   -0.9110 c         1 MOL      0.722392
    108 O17        -0.4630   -2.8210   -1.5690 o         1 MOL     -0.752717
    109 O18        -0.3810   -1.6470    0.1780 o         1 MOL     -0.752717
    110 H47         3.4390    0.8730   -2.0230 hn        1 MOL      0.219147
    111 H48         1.1330    0.4610   -0.1750 h1        1 MOL      0.111855
    112 H49         2.0390   -2.0010   -1.7370 hc        1 MOL     -0.014267
    113 H50         0.9430   -0.8630   -2.4840 hc        1 MOL     -0.014267
    114 N11         3.9910    0.1810    0.5950 n         1 MOL     -0.409647
    115 C36         5.0920   -0.2040    1.4440 c3        1 MOL      0.221454
    116 C37         5.8470   -1.4480    0.8260 c         1 MOL      0.339644
    117 O19         6.1010   -1.4670   -0.4070 o         1 MOL     -0.558239
    118 C38         6.0720    1.0070    1.4910 c3        1 MOL     -0.124427
    119 C39         7.4430    0.5690    2.0320 ca        1 MOL      0.014948
    120 C40         7.6530    0.5040    3.3880 ca        1 MOL     -0.116000
    121 C41         8.4790    0.2650    1.1230 ca        1 MOL     -0.116000
    122 C42         8.9450    0.1490    3.8920 ca        1 MOL     -0.137574
    123 C43         9.7650   -0.0670    1.6550 ca        1 MOL     -0.137574
    124 C44        10.0340   -0.1300    3.0350 ca        1 MOL     -0.120740
    125 H51         4.0060    1.1610    0.3180 hn        1 MOL      0.220001
    126 H52         4.7140   -0.3470    2.4550 h1        1 MOL      0.010840
    127 H53         5.7370    1.7450    2.2140 hc        1 MOL      0.067507
    128 H54         6.1340    1.4460    0.5010 hc        1 MOL      0.067507
    129 H55         6.8610    0.7440    4.0790 ha        1 MOL      0.119183
    130 H56         8.2750    0.3500    0.0700 ha        1 MOL      0.119183
    131 H57         9.0450    0.0970    4.9630 ha        1 MOL      0.109532
    132 H58        10.5270   -0.3010    0.9340 ha        1 MOL      0.109532
    133 H59        10.9690   -0.4860    3.4480 ha        1 MOL      0.116730
    134 N12         6.1990   -2.4460    1.6210 n         1 MOL     -0.025797
    135 C45         6.8650   -3.6920    1.2630 c3        1 MOL      0.014381
    136 C46         6.0770   -4.5290    0.2290 c         1 MOL      0.223217
    137 O20         6.7690   -5.3850   -0.3520 o         1 MOL     -0.495132
    138 C47         7.0030   -4.4960    2.5630 c3        1 MOL     -0.173016
    139 C48         5.7190   -4.1320    3.2610 c3        1 MOL      0.171993
    140 C49         5.6250   -2.6690    2.9960 c3        1 MOL     -0.094301
    141 H60         7.8830   -3.5100    0.9230 h1        1 MOL      0.094908
    142 H61         7.0550   -5.5810    2.4740 hc        1 MOL      0.061565
    143 H62         7.8220   -4.0570    3.1350 hc        1 MOL      0.061565
    144 H63         4.8920   -4.6730    2.8130 hc        1 MOL     -0.022362
    145 H64         5.7480   -4.3040    4.3370 hc        1 MOL     -0.022362
    146 H65         4.5470   -2.4990    2.9750 h1        1 MOL      0.028012
    147 H66         6.1060   -2.1280    3.8110 h1        1 MOL      0.028012
    148 N13         4.7620   -4.4120    0.0300 n         1 MOL      0.047395
    149 C50         4.1440   -5.3070   -0.9860 c3        1 MOL     -0.299366
    150 C51         4.4340   -4.7500   -2.3950 c         1 MOL      0.510224
    151 O21         4.6720   -5.5920   -3.2820 o         1 MOL     -0.550101
    152 C52         2.6190   -5.2910   -0.7620 c3        1 MOL      0.256472
    153 C53         2.0610   -5.7070    0.6280 c3        1 MOL     -0.335767
    154 C54         0.5910   -5.2350    0.6430 c         1 MOL      0.701053
    155 O22        -0.1950   -5.5870   -0.2970 o         1 MOL     -0.719953
    156 O23         0.0970   -4.4940    1.5350 o         1 MOL     -0.719953
    157 H67         4.2100   -3.7040    0.4860 hn        1 MOL      0.225545
    158 H68         4.4760   -6.3460   -0.9830 h1        1 MOL      0.143967
    159 H69         2.2330   -5.9550   -1.5280 hc        1 MOL     -0.012597
    160 H70         2.2470   -4.3170   -1.0770 hc        1 MOL     -0.012597
    161 H71         2.5850   -5.2070    1.4450 hc        1 MOL      0.060676
    162 H72         2.0970   -6.7830    0.7140 hc        1 MOL      0.060676
    163 N14         4.6260   -3.4610   -2.6750 n         1 MOL     -0.219366
    164 C55         4.9370   -2.9660   -4.1010 c3        1 MOL     -0.418099
    165 H73         5.7060   -3.5970   -4.5440 h1        1 MOL      0.155179
    166 H74         4.0330   -3.0160   -4.7080 h1        1 MOL      0.155179
    167 H75         5.2910   -1.9360   -4.0600 h1        1 MOL      0.155179
    168 H76         4.4220   -2.7340   -2.0070 hn        1 MOL      0.246841
    169 Ca1        -2.0910   -3.8020    0.1870 Ca        1 MOL      1.718070
    170 O24        -3.1540   -6.4720    0.6360 oh        1 MOL     -0.809615
    171 H77        -3.2760   -6.4930    1.5880 ho        1 MOL      0.398093
    172 H78        -3.9190   -6.9330    0.2870 ho        1 MOL      0.398093
    173 O25        -4.7820   -3.9390    0.1180 oh        1 MOL     -0.809615
    174 H79        -5.3560   -3.2670   -0.2550 ho        1 MOL      0.398093
    175 H80        -5.0750   -4.0340    1.0260 ho        1 MOL      0.398093
    176 O26        -2.6900   -4.9240   -2.1260 oh        1 MOL     -0.809615
    177 H81        -3.5940   -5.1790   -2.3330 ho        1 MOL      0.398093
    178 H82        -2.1770   -5.2800   -2.8450 ho        1 MOL      0.398093
    179 O27        -3.1350   -1.2260   -0.2790 oh        1 MOL     -0.809615
    180 H83        -2.2540   -0.8830   -0.1470 ho        1 MOL      0.398093
    181 H84        -3.7150   -0.5190    0.0010 ho        1 MOL      0.398093
@<TRIPOS>BOND
     1    1    2 1   
     2    1    4 1   
     3    1    5 1   
     4    1    6 1   
     5    2    3 2   
     6    2    7 1   
     7    7    8 1   
     8    7   15 1   
     9    8    9 1   
    10    8   11 1   
    11    8   16 1   
    12    9   10 2   
    13    9   19 1   
    14   11   12 1   
    15   11   17 1   
    16   11   18 1   
    17   12   13 1   
    18   12   14 1   
    19   19   20 1   
    20   19   24 1   
    21   20   21 1   
    22   20   23 1   
    23   20   25 1   
    24   21   22 2   
    25   21   29 1   
    26   23   26 1   
    27   23   27 1   
    28   23   28 1   
    29   29   30 1   
    30   29   37 1   
    31   30   31 1   
    32   30   33 1   
    33   30   38 1   
    34   31   32 2   
    35   31   41 1   
    36   33   34 1   
    37   33   39 1   
    38   33   40 1   
    39   34   35 1   
    40   34   36 1   
    41   41   42 1   
    42   41   45 1   
    43   42   43 1   
    44   42   46 1   
    45   42   47 1   
    46   43   44 2   
    47   43   48 1   
    48   48   49 1   
    49   48   56 1   
    50   49   50 1   
    51   49   52 1   
    52   49   57 1   
    53   50   51 2   
    54   50   62 1   
    55   52   53 1   
    56   52   58 1   
    57   52   59 1   
    58   53   54 1   
    59   53   55 2   
    60   54   60 1   
    61   54   61 1   
    62   62   63 1   
    63   62   66 1   
    64   63   64 1   
    65   63   67 1   
    66   63   68 1   
    67   64   65 2   
    68   64   69 1   
    69   69   70 1   
    70   69   76 1   
    71   70   71 1   
    72   70   73 1   
    73   70   77 1   
    74   71   72 2   
    75   71   83 1   
    76   73   74 1   
    77   73   75 1   
    78   73   78 1   
    79   74   80 1   
    80   74   81 1   
    81   74   82 1   
    82   75   79 1   
    83   83   84 1   
    84   83   91 1   
    85   84   85 1   
    86   84   87 1   
    87   84   92 1   
    88   85   86 2   
    89   85  102 1   
    90   87   88 1   
    91   87   89 1   
    92   87   93 1   
    93   88   90 1   
    94   88   94 1   
    95   88   95 1   
    96   89   96 1   
    97   89   97 1   
    98   89   98 1   
    99   90   99 1   
   100   90  100 1   
   101   90  101 1   
   102  102  103 1   
   103  102  110 1   
   104  103  104 1   
   105  103  106 1   
   106  103  111 1   
   107  104  105 2   
   108  104  114 1   
   109  106  107 1   
   110  106  112 1   
   111  106  113 1   
   112  107  108 1   
   113  107  109 1   
   114  114  115 1   
   115  114  125 1   
   116  115  116 1   
   117  115  118 1   
   118  115  126 1   
   119  116  117 2   
   120  116  134 1   
   121  118  119 1   
   122  118  127 1   
   123  118  128 1   
   124  119  120 ar  
   125  119  121 ar  
   126  120  122 ar  
   127  120  129 1   
   128  121  123 ar  
   129  121  130 1   
   130  122  124 ar  
   131  122  131 1   
   132  123  124 ar  
   133  123  132 1   
   134  124  133 1   
   135  134  135 1   
   136  134  140 1   
   137  135  136 1   
   138  135  138 1   
   139  135  141 1   
   140  136  137 2   
   141  136  148 1   
   142  138  139 1   
   143  138  142 1   
   144  138  143 1   
   145  139  140 1   
   146  139  144 1   
   147  139  145 1   
   148  140  146 1   
   149  140  147 1   
   150  148  149 1   
   151  148  157 1   
   152  149  150 1   
   153  149  152 1   
   154  149  158 1   
   155  150  151 2   
   156  150  163 1   
   157  152  153 1   
   158  152  159 1   
   159  152  160 1   
   160  153  154 1   
   161  153  161 1   
   162  153  162 1   
   163  154  155 1   
   164  154  156 1   
   165  163  164 1   
   166  163  168 1   
   167  164  165 1   
   168  164  166 1   
   169  164  167 1   
   170  170  171 1   
   171  170  172 1   
   172  173  174 1   
   173  173  175 1   
   174  176  177 1   
   175  176  178 1   
   176  179  180 1   
   177  179  181 1   
@<TRIPOS>SUBSTRUCTURE
     1 MOL         1 TEMP              0 ****  ****    0 ROOT
