@<TRIPOS>MOLECULE
MOL
  178   175     1     0     0
SMALL
resp


@<TRIPOS>ATOM
      1 C1          2.5200   -2.5340    4.4050 c3        1 MOL     -0.268202
      2 C2          3.6140   -1.6630    3.7690 c         1 MOL      0.650129
      3 O1          3.4360   -1.3300    2.6010 o         1 MOL     -0.530382
      4 H1          2.4840   -2.3440    5.4780 hc        1 MOL      0.064530
      5 H2          1.5550   -2.2890    3.9610 hc        1 MOL      0.064530
      6 H3          2.7450   -3.5860    4.2290 hc        1 MOL      0.064530
      7 N1          4.7120   -1.3710    4.4140 n         1 MOL     -0.571067
      8 C3          5.8470   -0.5270    3.9870 c3        1 MOL      0.226878
      9 C4          6.5010   -1.0010    2.6370 c         1 MOL      0.355570
     10 O2          6.7410   -0.2930    1.6650 o         1 MOL     -0.417540
     11 C5          6.8760   -0.3550    5.0770 c3        1 MOL     -0.109299
     12 C6          8.0550    0.4710    4.6000 c         1 MOL      0.660972
     13 O3          7.9080    1.7050    4.5230 o         1 MOL     -0.699173
     14 O4          9.1240   -0.1640    4.2410 o         1 MOL     -0.699173
     15 H4          4.7440   -1.7890    5.3290 hn        1 MOL      0.282288
     16 H5          5.4230    0.4540    3.7640 h1        1 MOL      0.038857
     17 H6          7.2410   -1.3050    5.4680 hc        1 MOL     -0.024620
     18 H7          6.4850    0.1020    5.9930 hc        1 MOL     -0.024620
     19 N2          6.7700   -2.3060    2.6680 n         1 MOL     -0.517106
     20 C7          7.4380   -3.0820    1.5800 c3        1 MOL      0.485876
     21 C8          6.8290   -3.0940    0.1960 c         1 MOL      0.208659
     22 O5          7.4800   -3.1440   -0.8740 o         1 MOL     -0.492314
     23 C9          8.9440   -3.0040    1.6400 c3        1 MOL     -0.415627
     24 H8          6.5100   -2.7730    3.5220 hn        1 MOL      0.277529
     25 H9          7.2000   -4.0860    1.9350 h1        1 MOL     -0.025333
     26 H10         9.2650   -3.3030    2.6410 hc        1 MOL      0.102397
     27 H11         9.4040   -3.5600    0.8250 hc        1 MOL      0.102397
     28 H12         9.1560   -1.9370    1.5750 hc        1 MOL      0.102397
     29 N3          5.5080   -2.9810    0.0890 n         1 MOL     -0.326687
     30 C10         4.6640   -2.8240   -1.1520 c3        1 MOL      0.165239
     31 C11         5.1400   -1.6950   -2.1580 c         1 MOL      0.442268
     32 O6          5.2660   -1.8430   -3.3660 o         1 MOL     -0.507399
     33 C12         4.4130   -4.2290   -1.7080 c3        1 MOL      0.033506
     34 C13         2.9870   -4.2500   -2.1180 c         1 MOL      0.640098
     35 O7          2.6960   -4.0550   -3.3370 o         1 MOL     -0.721388
     36 O8          2.0890   -4.4250   -1.2790 o         1 MOL     -0.721388
     37 H13         5.0250   -3.1000    0.9700 hn        1 MOL      0.226614
     38 H14         3.6690   -2.5440   -0.8170 h1        1 MOL      0.069138
     39 H15         4.5570   -5.0520   -1.0070 hc        1 MOL     -0.029872
     40 H16         4.9970   -4.3500   -2.6220 hc        1 MOL     -0.029872
     41 N4          5.5050   -0.5480   -1.5480 n         1 MOL      0.010633
     42 C14         6.1710    0.5910   -2.2290 c3        1 MOL     -0.315960
     43 C15         5.2230    1.4970   -2.9320 c         1 MOL      0.678409
     44 O9          5.4910    2.2000   -3.9120 o         1 MOL     -0.614432
     45 H17         5.3750   -0.4910   -0.5450 hn        1 MOL      0.116749
     46 H18         6.8840    0.2690   -2.9970 h1        1 MOL      0.123795
     47 H19         6.6360    1.2360   -1.4820 h1        1 MOL      0.123795
     48 N5          3.9110    1.4370   -2.5890 n         1 MOL     -0.197039
     49 C16         2.7710    2.2020   -3.1920 c3        1 MOL     -0.353203
     50 C17         2.7360    3.6130   -2.6360 c         1 MOL      0.624676
     51 O10         2.9370    3.8810   -1.4610 o         1 MOL     -0.552495
     52 C18         1.4190    1.3500   -2.8100 c3        1 MOL     -0.251630
     53 C19         1.4750   -0.0210   -3.4880 c         1 MOL      0.460782
     54 N6          1.6190   -0.0870   -4.8130 n         1 MOL     -0.605295
     55 O11         1.4950   -1.0160   -2.8260 o         1 MOL     -0.455831
     56 H20         3.6540    0.6360   -2.0270 hn        1 MOL      0.119198
     57 H21         2.7970    2.1180   -4.2750 h1        1 MOL      0.135624
     58 H22         0.5350    1.8420   -3.2040 hc        1 MOL      0.165435
     59 H23         1.3640    1.1460   -1.7430 hc        1 MOL      0.165435
     60 H24         1.7840    0.7240   -5.4030 hn        1 MOL      0.298368
     61 H25         1.3120   -0.9210   -5.2970 hn        1 MOL      0.298368
     62 N7          2.5110    4.5620   -3.5220 n         1 MOL     -0.314751
     63 C20         2.3760    6.0100   -3.2330 c3        1 MOL     -0.231986
     64 C21         0.9710    6.3510   -2.7150 c         1 MOL      0.534098
     65 O12        -0.0180    5.7980   -3.2500 o         1 MOL     -0.506737
     66 H26         2.3000    4.3550   -4.4890 hn        1 MOL      0.271016
     67 H27         2.6480    6.5990   -4.1130 h1        1 MOL      0.118977
     68 H28         3.0530    6.2270   -2.4070 h1        1 MOL      0.118977
     69 N8          0.9250    7.1380   -1.6440 n         1 MOL     -0.455167
     70 C22        -0.2850    7.4450   -0.7630 c3        1 MOL     -0.058099
     71 C23        -1.0190    6.2020   -0.1110 c         1 MOL      0.514640
     72 O13        -2.2540    6.1120   -0.1800 o         1 MOL     -0.558691
     73 C24         0.1800    8.4360    0.3450 c3        1 MOL      0.194681
     74 C25        -0.8870    8.7880    1.3570 c3        1 MOL     -0.300371
     75 O14         1.2960    7.9020    1.0240 oh        1 MOL     -0.564797
     76 H29         1.7890    7.5870   -1.3850 hn        1 MOL      0.270939
     77 H30        -1.0410    7.9520   -1.3600 h1        1 MOL      0.102355
     78 H31         0.4840    9.3620   -0.1310 h1        1 MOL      0.027889
     79 H32         1.6170    8.6880    1.4760 ho        1 MOL      0.390458
     80 H33        -1.7110    9.3270    0.8970 hc        1 MOL      0.084421
     81 H34        -1.2010    7.8230    1.7560 hc        1 MOL      0.084421
     82 H35        -0.5420    9.4490    2.1520 hc        1 MOL      0.084421
     83 N9         -0.2250    5.3030    0.4050 n         1 MOL     -0.036396
     84 C26        -0.6760    4.0970    1.0940 c3        1 MOL     -0.402273
     85 C27        -1.0180    2.9280    0.1640 c         1 MOL      0.566808
     86 O15        -0.4160    2.8500   -0.9140 o         1 MOL     -0.486189
     87 C28         0.2510    3.8270    2.2850 c3        1 MOL      0.354538
     88 C29         1.6430    3.3060    1.8500 c3        1 MOL     -0.383676
     89 C30         0.3310    5.0670    3.1550 c3        1 MOL     -0.313443
     90 C31         2.4730    2.8400    3.0640 c3        1 MOL     -0.132895
     91 H36         0.7740    5.4380    0.4100 hn        1 MOL      0.215387
     92 H37        -1.6430    4.3510    1.5330 h1        1 MOL      0.088436
     93 H38        -0.1990    3.0230    2.8750 hc        1 MOL     -0.026637
     94 H39         2.2140    4.0310    1.2780 hc        1 MOL      0.203387
     95 H40         1.5250    2.4010    1.2600 hc        1 MOL      0.203387
     96 H41        -0.6460    5.5290    3.2870 hc        1 MOL      0.066467
     97 H42         0.5440    4.7650    4.1830 hc        1 MOL      0.066467
     98 H43         1.0510    5.7950    2.7850 hc        1 MOL      0.066467
     99 H44         2.8870    3.7290    3.5600 hc        1 MOL      0.045828
    100 H45         1.8470    2.2770    3.7500 hc        1 MOL      0.045828
    101 H46         3.2620    2.1200    2.8360 hc        1 MOL      0.045828
    102 N10        -1.8570    2.0120    0.5870 n         1 MOL     -0.445318
    103 C32        -2.0440    0.7000   -0.0510 c3        1 MOL      0.025030
    104 C33        -3.5270    0.2320   -0.0780 c         1 MOL      0.671293
    105 O16        -3.7910   -0.9470    0.0150 o         1 MOL     -0.639219
    106 C34        -1.0490   -0.3060    0.5500 c3        1 MOL      0.035565
    107 C35        -0.6820   -1.3550   -0.4790 c         1 MOL      0.516587
    108 O17         0.2770   -2.0870   -0.1330 o         1 MOL     -0.674416
    109 O18        -1.1500   -1.4530   -1.6450 o         1 MOL     -0.674416
    110 H47        -2.4150    2.2680    1.3780 hn        1 MOL      0.260765
    111 H48        -1.8370    0.7800   -1.1130 h1        1 MOL      0.033536
    112 H49        -1.5100   -0.7780    1.4100 hc        1 MOL      0.021997
    113 H50        -0.1860    0.3110    0.8230 hc        1 MOL      0.021997
    114 N11        -4.5230    1.0880   -0.0000 n         1 MOL     -0.535317
    115 C36        -5.9520    0.7470    0.0460 c3        1 MOL      0.345089
    116 C37        -6.4900   -0.3960    0.9650 c         1 MOL      0.281002
    117 O19        -6.3750   -0.3160    2.1630 o         1 MOL     -0.512068
    118 C38        -6.8400    1.9350    0.3650 c3        1 MOL     -0.298727
    119 C39        -8.2870    1.6710    0.1150 ca        1 MOL      0.079859
    120 C40        -8.8850    2.0850   -1.0460 ca        1 MOL     -0.106438
    121 C41        -9.1360    1.3070    1.2350 ca        1 MOL     -0.106438
    122 C42       -10.2690    2.0740   -1.2240 ca        1 MOL     -0.174419
    123 C43       -10.5060    1.2750    1.0790 ca        1 MOL     -0.174419
    124 C44       -11.0520    1.6610   -0.1390 ca        1 MOL     -0.054383
    125 H51        -4.2930    2.0670   -0.0350 hn        1 MOL      0.275437
    126 H52        -6.1280    0.5460   -1.0140 h1        1 MOL     -0.020039
    127 H53        -6.5240    2.7600   -0.2590 hc        1 MOL      0.102560
    128 H54        -6.6250    2.2660    1.3840 hc        1 MOL      0.102560
    129 H55        -8.2420    2.3230   -1.8830 ha        1 MOL      0.109530
    130 H56        -8.7110    0.9510    2.1560 ha        1 MOL      0.109530
    131 H57       -10.6920    2.4790   -2.1290 ha        1 MOL      0.123463
    132 H58       -11.1270    0.9800    1.9120 ha        1 MOL      0.123463
    133 H59       -12.1220    1.6780   -0.2790 ha        1 MOL      0.079397
    134 N12        -6.9130   -1.5420    0.4030 n         1 MOL     -0.008074
    135 C45        -7.4040   -2.7350    1.1950 c3        1 MOL     -0.010315
    136 C46        -6.3060   -3.4400    2.0370 c         1 MOL      0.183037
    137 O20        -6.5630   -4.3230    2.8100 o         1 MOL     -0.494221
    138 C47        -7.9710   -3.7230    0.2020 c3        1 MOL      0.036825
    139 C48        -8.2150   -2.9120   -1.0120 c3        1 MOL     -0.232375
    140 C49        -7.1940   -1.8040   -0.9890 c3        1 MOL      0.055381
    141 H60        -8.2430   -2.4730    1.8320 h1        1 MOL      0.105123
    142 H61        -7.2750   -4.4840   -0.1360 hc        1 MOL      0.044199
    143 H62        -8.8850   -4.2260    0.5150 hc        1 MOL      0.044199
    144 H63        -8.0230   -3.4900   -1.9280 hc        1 MOL      0.058222
    145 H64        -9.1780   -2.4200   -0.8830 hc        1 MOL      0.058222
    146 H65        -6.2570   -2.2030   -1.3830 h1        1 MOL      0.030920
    147 H66        -7.5300   -0.8870   -1.4760 h1        1 MOL      0.030920
    148 N13        -5.0350   -3.0440    1.8660 n         1 MOL      0.000259
    149 C50        -3.8320   -3.5290    2.5940 c3        1 MOL     -0.099973
    150 C51        -3.3760   -2.5110    3.6920 c         1 MOL      0.433645
    151 O21        -2.7690   -2.9080    4.6710 o         1 MOL     -0.549639
    152 C52        -2.7310   -3.7190    1.5100 c3        1 MOL     -0.053928
    153 C53        -3.2500   -4.7050    0.4290 c3        1 MOL     -0.298821
    154 C54        -2.1730   -5.1320   -0.5140 c         1 MOL      0.679212
    155 O22        -1.5650   -6.2350   -0.2500 o         1 MOL     -0.707471
    156 O23        -1.9440   -4.4850   -1.5250 o         1 MOL     -0.707471
    157 H67        -4.7750   -2.4340    1.1060 hn        1 MOL      0.181556
    158 H68        -3.9500   -4.5050    3.0470 h1        1 MOL      0.104413
    159 H69        -1.8330   -4.0360    2.0270 hc        1 MOL      0.111585
    160 H70        -2.5210   -2.7810    0.9970 hc        1 MOL      0.111585
    161 H71        -4.1100   -4.3580   -0.1530 hc        1 MOL      0.071702
    162 H72        -3.5920   -5.6530    0.8300 hc        1 MOL      0.071702
    163 N14        -3.7850   -1.2450    3.5420 n         1 MOL     -0.133147
    164 C55        -3.6530   -0.1430    4.5140 c3        1 MOL     -0.179179
    165 H73        -3.0340   -0.4690    5.3490 h1        1 MOL      0.078728
    166 H74        -3.1870    0.7160    4.0300 h1        1 MOL      0.078728
    167 H75        -4.6400    0.1380    4.8810 h1        1 MOL      0.078728
    168 H76        -4.2210   -1.0350    2.6600 hn        1 MOL      0.163352
    169 Ca1         0.1000   -3.4430   -2.7310 Ca        1 MOL      1.709441
    170 O24         0.0720   -5.7800   -4.2260 oh        1 MOL     -0.788738
    171 H77         0.1310   -6.7270   -4.1030 ho        1 MOL      0.385561
    172 H78         0.1500   -5.6680   -5.1780 ho        1 MOL      0.385561
    173 O25        -2.1090   -3.6680   -4.3710 oh        1 MOL     -0.788738
    174 H79        -2.3420   -4.2900   -5.0620 ho        1 MOL      0.385561
    175 H80        -2.7020   -2.9270   -4.5040 ho        1 MOL      0.385561
    176 O26         0.8890   -2.9630   -5.3760 oh        1 MOL     -0.788738
    177 H81         1.5630   -3.6440   -5.4510 ho        1 MOL      0.385561
    178 H82         0.4390   -2.9870   -6.2160 ho        1 MOL      0.385561
@<TRIPOS>BOND
     1    1    2 1   
     2    1    4 1   
     3    1    5 1   
     4    1    6 1   
     5    2    3 2   
     6    2    7 1   
     7    7    8 1   
     8    7   15 1   
     9    8    9 1   
    10    8   11 1   
    11    8   16 1   
    12    9   10 2   
    13    9   19 1   
    14   11   12 1   
    15   11   17 1   
    16   11   18 1   
    17   12   13 1   
    18   12   14 1   
    19   19   20 1   
    20   19   24 1   
    21   20   21 1   
    22   20   23 1   
    23   20   25 1   
    24   21   22 2   
    25   21   29 1   
    26   23   26 1   
    27   23   27 1   
    28   23   28 1   
    29   29   30 1   
    30   29   37 1   
    31   30   31 1   
    32   30   33 1   
    33   30   38 1   
    34   31   32 2   
    35   31   41 1   
    36   33   34 1   
    37   33   39 1   
    38   33   40 1   
    39   34   35 1   
    40   34   36 1   
    41   41   42 1   
    42   41   45 1   
    43   42   43 1   
    44   42   46 1   
    45   42   47 1   
    46   43   44 2   
    47   43   48 1   
    48   48   49 1   
    49   48   56 1   
    50   49   50 1   
    51   49   52 1   
    52   49   57 1   
    53   50   51 2   
    54   50   62 1   
    55   52   53 1   
    56   52   58 1   
    57   52   59 1   
    58   53   54 1   
    59   53   55 2   
    60   54   60 1   
    61   54   61 1   
    62   62   63 1   
    63   62   66 1   
    64   63   64 1   
    65   63   67 1   
    66   63   68 1   
    67   64   65 2   
    68   64   69 1   
    69   69   70 1   
    70   69   76 1   
    71   70   71 1   
    72   70   73 1   
    73   70   77 1   
    74   71   72 2   
    75   71   83 1   
    76   73   74 1   
    77   73   75 1   
    78   73   78 1   
    79   74   80 1   
    80   74   81 1   
    81   74   82 1   
    82   75   79 1   
    83   83   84 1   
    84   83   91 1   
    85   84   85 1   
    86   84   87 1   
    87   84   92 1   
    88   85   86 2   
    89   85  102 1   
    90   87   88 1   
    91   87   89 1   
    92   87   93 1   
    93   88   90 1   
    94   88   94 1   
    95   88   95 1   
    96   89   96 1   
    97   89   97 1   
    98   89   98 1   
    99   90   99 1   
   100   90  100 1   
   101   90  101 1   
   102  102  103 1   
   103  102  110 1   
   104  103  104 1   
   105  103  106 1   
   106  103  111 1   
   107  104  105 2   
   108  104  114 1   
   109  106  107 1   
   110  106  112 1   
   111  106  113 1   
   112  107  108 1   
   113  107  109 1   
   114  114  115 1   
   115  114  125 1   
   116  115  116 1   
   117  115  118 1   
   118  115  126 1   
   119  116  117 2   
   120  116  134 1   
   121  118  119 1   
   122  118  127 1   
   123  118  128 1   
   124  119  120 ar  
   125  119  121 ar  
   126  120  122 ar  
   127  120  129 1   
   128  121  123 ar  
   129  121  130 1   
   130  122  124 ar  
   131  122  131 1   
   132  123  124 ar  
   133  123  132 1   
   134  124  133 1   
   135  134  135 1   
   136  134  140 1   
   137  135  136 1   
   138  135  138 1   
   139  135  141 1   
   140  136  137 2   
   141  136  148 1   
   142  138  139 1   
   143  138  142 1   
   144  138  143 1   
   145  139  140 1   
   146  139  144 1   
   147  139  145 1   
   148  140  146 1   
   149  140  147 1   
   150  148  149 1   
   151  148  157 1   
   152  149  150 1   
   153  149  152 1   
   154  149  158 1   
   155  150  151 2   
   156  150  163 1   
   157  152  153 1   
   158  152  159 1   
   159  152  160 1   
   160  153  154 1   
   161  153  161 1   
   162  153  162 1   
   163  154  155 1   
   164  154  156 1   
   165  163  164 1   
   166  163  168 1   
   167  164  165 1   
   168  164  166 1   
   169  164  167 1   
   170  170  171 1   
   171  170  172 1   
   172  173  174 1   
   173  173  175 1   
   174  176  177 1   
   175  176  178 1   
@<TRIPOS>SUBSTRUCTURE
     1 MOL         1 TEMP              0 ****  ****    0 ROOT
