@<TRIPOS>MOLECULE
MOL
  182   178     1     0     0
SMALL
resp


@<TRIPOS>ATOM
      1 C1          2.6160   -6.2620    4.9060 c3        1 MOL     -0.385348
      2 C2          2.3750   -5.4710    3.5790 c         1 MOL      0.730786
      3 O1          1.5160   -5.8190    2.7410 o         1 MOL     -0.628905
      4 H1          2.1670   -7.2530    4.8250 hc        1 MOL      0.109692
      5 H2          3.6870   -6.3610    5.0810 hc        1 MOL      0.109692
      6 H3          2.1600   -5.7250    5.7380 hc        1 MOL      0.109692
      7 N1          3.2320   -4.4520    3.3170 n         1 MOL     -0.599257
      8 C3          3.1980   -3.5630    2.0940 c3        1 MOL      0.043499
      9 C4          3.4610   -4.4560    0.8190 c         1 MOL      0.633698
     10 O2          4.4160   -5.2440    0.8500 o         1 MOL     -0.572791
     11 C5          4.2700   -2.5090    2.3730 c3        1 MOL     -0.162776
     12 C6          4.2050   -1.4240    1.2400 c         1 MOL      0.522057
     13 O3          4.4810   -0.2740    1.4670 o         1 MOL     -0.623783
     14 O4          3.7820   -1.6440    0.1170 o         1 MOL     -0.623783
     15 H4          4.0380   -4.3690    3.9160 hn        1 MOL      0.311415
     16 H5          2.2040   -3.1400    1.9140 h1        1 MOL     -0.004161
     17 H6          5.2640   -2.9450    2.3490 hc        1 MOL      0.094435
     18 H7          4.0890   -1.9630    3.2950 hc        1 MOL      0.094435
     19 N2          2.6850   -4.3200   -0.2320 n         1 MOL     -0.279441
     20 C7          2.8850   -5.0090   -1.4990 c3        1 MOL     -0.077209
     21 C8          4.0300   -4.5820   -2.3610 c         1 MOL      0.538913
     22 O5          4.4470   -5.2080   -3.3070 o         1 MOL     -0.561875
     23 C9          1.5690   -4.9800   -2.3490 c3        1 MOL      0.025238
     24 C10         0.4220   -5.8690   -1.7300 c3        1 MOL     -0.061085
     25 C11        -0.8090   -5.4070   -2.4980 c3        1 MOL      0.074754
     26 C12        -2.1140   -5.8860   -1.8110 c3        1 MOL      0.148740
     27 N3         -3.2800   -5.7190   -2.6690 n4        1 MOL     -0.332852
     28 H8          1.9310   -3.6490   -0.1770 hn        1 MOL      0.195459
     29 H9          3.1200   -6.0400   -1.2240 h1        1 MOL      0.089559
     30 H10         1.7920   -5.3730   -3.3430 hc        1 MOL      0.027873
     31 H11         1.3230   -3.9230   -2.4530 hc        1 MOL      0.027873
     32 H12         0.3440   -5.6800   -0.6580 hc        1 MOL      0.047243
     33 H13         0.6630   -6.9080   -1.9800 hc        1 MOL      0.047243
     34 H14        -0.8030   -5.7320   -3.5430 hc        1 MOL     -0.014030
     35 H15        -0.9340   -4.3290   -2.4330 hc        1 MOL     -0.014030
     36 H16        -2.2740   -5.4350   -0.8340 hx        1 MOL      0.022909
     37 H17        -2.0080   -6.9560   -1.6400 hx        1 MOL      0.022909
     38 H18        -4.0410   -6.3240   -2.4080 hn        1 MOL      0.298266
     39 H19        -3.5860   -4.7580   -2.5990 hn        1 MOL      0.298266
     40 H20        -3.1420   -5.9220   -3.6450 hn        1 MOL      0.298266
     41 N4          4.6580   -3.4780   -2.0070 n         1 MOL     -0.377771
     42 C13         5.7430   -2.8180   -2.7520 c3        1 MOL      0.074529
     43 C14         6.9640   -2.3010   -1.8630 c         1 MOL      0.320718
     44 O6          8.0670   -2.1000   -2.4750 o         1 MOL     -0.517368
     45 C15         5.1690   -1.7060   -3.7080 c3        1 MOL     -0.290649
     46 C16         4.2120   -0.8240   -2.9570 c         1 MOL      0.755404
     47 O7          4.6600    0.1060   -2.2650 o         1 MOL     -0.735319
     48 O8          2.9680   -1.0010   -2.9820 o         1 MOL     -0.735319
     49 H21         4.2180   -3.0060   -1.2330 hn        1 MOL      0.268552
     50 H22         6.1100   -3.5770   -3.4330 h1        1 MOL      0.125066
     51 H23         4.6110   -2.1590   -4.5370 hc        1 MOL      0.095845
     52 H24         5.9420   -1.1390   -4.2200 hc        1 MOL      0.095845
     53 N5          6.8000   -2.0430   -0.5830 n         1 MOL     -0.008765
     54 C17         7.6630   -1.3530    0.3880 c3        1 MOL     -0.310387
     55 C18         7.6030    0.2230    0.4390 c         1 MOL      0.600525
     56 O9          8.0750    0.8440    1.3750 o         1 MOL     -0.548981
     57 H25         5.8470   -2.1320   -0.2620 hn        1 MOL      0.016561
     58 H26         8.6480   -1.7680    0.1490 h1        1 MOL      0.148120
     59 H27         7.4400   -1.6450    1.4160 h1        1 MOL      0.148120
     60 N6          6.9970    0.9120   -0.5650 n         1 MOL     -0.359713
     61 C19         6.9240    2.3750   -0.6050 c3        1 MOL      0.201484
     62 C20         5.5940    3.0140   -0.3860 c         1 MOL      0.429713
     63 O10         4.6390    2.2990   -0.1960 o         1 MOL     -0.428788
     64 C21         7.6690    2.8010   -1.8530 c3        1 MOL     -0.319497
     65 C22         6.7640    3.2360   -3.0560 c         1 MOL      0.560316
     66 N7          5.6670    2.6250   -3.2660 n         1 MOL     -0.596409
     67 O11         7.0820    4.1450   -3.7900 o         1 MOL     -0.591542
     68 H28         6.3560    0.4290   -1.1790 hn        1 MOL      0.215050
     69 H29         7.5720    2.8190    0.1520 h1        1 MOL      0.055087
     70 H30         8.2230    1.9290   -2.1870 hc        1 MOL      0.112369
     71 H31         8.4020    3.5960   -1.7020 hc        1 MOL      0.112369
     72 H32         5.5430    1.7940   -2.7070 hn        1 MOL      0.315351
     73 H33         5.1520    2.7740   -4.1270 hn        1 MOL      0.315351
     74 N8          5.5220    4.3570   -0.4120 n         1 MOL     -0.476318
     75 C23         4.3230    5.0900   -0.5310 c3        1 MOL      0.124193
     76 C24         3.4080    4.9900    0.6770 c         1 MOL      0.582637
     77 O12         3.8040    5.1280    1.8420 o         1 MOL     -0.514705
     78 H34         6.4060    4.8390   -0.4450 hn        1 MOL      0.313614
     79 H35         3.8040    4.7130   -1.4050 h1        1 MOL      0.017982
     80 H36         4.4700    6.1640   -0.6460 h1        1 MOL      0.017982
     81 N9          2.0990    4.7190    0.4300 n         1 MOL     -0.578083
     82 C25         1.1060    4.4270    1.4470 c3        1 MOL      0.157688
     83 C26         1.2280    2.9210    1.8820 c         1 MOL      0.707450
     84 O13         2.0020    2.1420    1.2690 o         1 MOL     -0.546023
     85 C27        -0.2070    4.7000    0.7500 c3        1 MOL     -0.054364
     86 C28        -0.5270    6.1280    0.3800 ca        1 MOL      0.030819
     87 C29        -0.4080    7.1560    1.2970 ca        1 MOL     -0.081052
     88 C30        -1.0790    6.4070   -0.8490 ca        1 MOL     -0.081052
     89 C31        -0.8410    8.4370    0.9070 ca        1 MOL     -0.367315
     90 C32        -1.3670    7.7180   -1.3730 ca        1 MOL     -0.367315
     91 C33        -1.3100    8.7240   -0.4470 ca        1 MOL      0.444200
     92 O14        -1.6280    9.9780   -0.7560 oh        1 MOL     -0.480290
     93 H37         1.7600    4.6820   -0.5220 hn        1 MOL      0.229183
     94 H38         1.1250    5.0620    2.3410 h1        1 MOL      0.071150
     95 H39        -1.0160    4.3230    1.3730 hc        1 MOL      0.001451
     96 H40        -0.2140    4.0730   -0.1490 hc        1 MOL      0.001451
     97 H41        -0.1900    7.0540    2.3440 ha        1 MOL      0.114755
     98 H42        -1.2570    5.5050   -1.4310 ha        1 MOL      0.114755
     99 H43        -0.8530    9.1770    1.7000 ha        1 MOL      0.182792
    100 H44        -1.5870    7.9770   -2.4000 ha        1 MOL      0.182792
    101 H45        -1.7500   10.0970   -1.6990 ho        1 MOL      0.369336
    102 N10         0.5360    2.5240    2.9080 n         1 MOL     -0.769967
    103 C34         0.3150    1.1190    3.2940 c3        1 MOL      0.197578
    104 C35        -0.0300    0.1550    2.1550 c         1 MOL      0.376339
    105 O15         0.8540   -0.2920    1.3740 o         1 MOL     -0.389541
    106 C36         1.4900    0.5620    4.1410 c3        1 MOL      0.330578
    107 C37         1.0800   -0.7160    4.8090 c3        1 MOL     -0.100202
    108 C38         2.2200    1.4040    5.2090 c3        1 MOL     -0.389812
    109 C39        -0.1440   -0.7450    5.7150 c3        1 MOL     -0.051815
    110 H46        -0.0860    3.1960    3.3460 hn        1 MOL      0.355592
    111 H47        -0.5270    1.1010    3.9890 h1        1 MOL      0.034933
    112 H48         2.2520    0.3340    3.3970 hc        1 MOL     -0.040055
    113 H49         1.8470   -1.1870    5.4170 hc        1 MOL      0.041804
    114 H50         0.9670   -1.4130    3.9750 hc        1 MOL      0.041804
    115 H51         2.3900    2.3860    4.7690 hc        1 MOL      0.101501
    116 H52         1.7450    1.5060    6.1860 hc        1 MOL      0.101501
    117 H53         3.2370    1.0680    5.4050 hc        1 MOL      0.101501
    118 H54        -0.1420    0.1150    6.3870 hc        1 MOL      0.011927
    119 H55        -1.1140   -0.7260    5.2150 hc        1 MOL      0.011927
    120 H56        -0.1370   -1.6390    6.3400 hc        1 MOL      0.011927
    121 N11        -1.2740   -0.3420    2.0990 n         1 MOL     -0.442393
    122 C40        -1.8330   -1.2250    1.0990 c3        1 MOL      0.338701
    123 C41        -3.3010   -0.8670    0.6790 c         1 MOL      0.590711
    124 O16        -3.5960   -1.0500   -0.4650 o         1 MOL     -0.544151
    125 C42        -1.9290   -2.6710    1.5700 c3        1 MOL     -0.185990
    126 O17        -0.5910   -3.1350    1.6200 oh        1 MOL     -0.537071
    127 H57        -1.8680   -0.0800    2.8690 hn        1 MOL      0.249390
    128 H58        -1.3650   -1.1500    0.1160 h1        1 MOL     -0.057374
    129 H59        -2.4030   -3.2200    0.7540 h1        1 MOL      0.107979
    130 H60        -2.4730   -2.8290    2.5020 h1        1 MOL      0.107979
    131 H61        -0.7790   -4.0750    1.6290 ho        1 MOL      0.420432
    132 N12        -4.1760   -0.2500    1.5610 n         1 MOL     -0.759084
    133 C43        -5.5570    0.1360    1.1990 c3        1 MOL      0.168737
    134 C44        -5.6840    1.3900    0.2880 c         1 MOL      0.756898
    135 O18        -5.0580    2.3850    0.5030 o         1 MOL     -0.589225
    136 C45        -6.4040    0.2690    2.4680 c3        1 MOL     -0.342413
    137 H62        -3.9070   -0.0440    2.5150 hn        1 MOL      0.364656
    138 H63        -5.9610   -0.7450    0.6970 h1        1 MOL      0.133469
    139 H64        -7.4520    0.5460    2.3630 hc        1 MOL      0.101143
    140 H65        -6.5200   -0.6690    3.0130 hc        1 MOL      0.101143
    141 H66        -5.8380    1.0030    3.0480 hc        1 MOL      0.101143
    142 N13        -6.4900    1.3130   -0.7710 n         1 MOL     -0.763601
    143 C46        -7.3490    0.2840   -1.2830 c3        1 MOL      0.705414
    144 C47        -8.8120    0.8400   -1.5090 c         1 MOL      0.157521
    145 O19        -8.9440    2.0830   -1.7340 o         1 MOL     -0.484755
    146 C48        -6.6740   -0.4080   -2.4670 c3        1 MOL     -0.228906
    147 H67        -6.6140    2.2080   -1.2140 hn        1 MOL      0.326187
    148 H68        -7.4810   -0.4610   -0.4980 h1        1 MOL     -0.190162
    149 H69        -5.7050   -0.8070   -2.1490 hc        1 MOL      0.037992
    150 H70        -7.2040   -1.3200   -2.7500 hc        1 MOL      0.037992
    151 H71        -6.6100    0.3210   -3.2690 hc        1 MOL      0.037992
    152 N14        -9.8740    0.0570   -1.4590 n         1 MOL     -0.070259
    153 C49        -9.8880   -1.2630   -0.7180 c3        1 MOL     -0.420599
    154 C50        -9.9330   -1.1080    0.7650 c         1 MOL      0.737979
    155 O20        -9.3140   -1.8950    1.4790 o         1 MOL     -0.593659
    156 C51       -10.9820   -2.1170   -1.3950 c3        1 MOL     -0.231035
    157 C52       -12.4680   -1.5950   -1.2740 c3        1 MOL     -0.014034
    158 C53       -12.8550   -0.5780   -2.3450 c         1 MOL      0.660761
    159 O21       -12.7760    0.6770   -2.0500 o         1 MOL     -0.655947
    160 O22       -13.2650   -1.0230   -3.4360 o         1 MOL     -0.655947
    161 H72       -10.7730    0.4230   -1.7650 hn        1 MOL      0.199993
    162 H73        -8.9590   -1.7900   -0.9210 h1        1 MOL      0.156812
    163 H74       -10.9670   -3.0670   -0.8740 hc        1 MOL      0.108024
    164 H75       -10.7850   -2.1970   -2.4650 hc        1 MOL      0.108024
    165 H76       -12.6120   -1.1920   -0.2680 hc        1 MOL     -0.004228
    166 H77       -13.1460   -2.4520   -1.3050 hc        1 MOL     -0.004228
    167 N15       -10.4870    0.0190    1.3040 n         1 MOL     -0.272178
    168 C54       -10.5270    0.2390    2.7120 c3        1 MOL     -0.219473
    169 H78       -10.2810   -0.6870    3.2320 h1        1 MOL      0.100379
    170 H79        -9.8030    1.0090    2.9800 h1        1 MOL      0.100379
    171 H80       -11.5270    0.5630    3.0010 h1        1 MOL      0.100379
    172 H81       -10.8890    0.6970    0.6870 hn        1 MOL      0.243422
    173 Ca1         2.5400    0.4120   -0.7170 Ca        1 MOL      1.726832
    174 O23         0.9700   -1.9700   -0.6260 oh        1 MOL     -0.892531
    175 H82         0.6880   -1.7690    0.2630 ho        1 MOL      0.438859
    176 H83         0.1650   -2.1850   -1.0850 ho        1 MOL      0.438859
    177 O24         2.4710    2.2510   -2.6700 oh        1 MOL     -0.892531
    178 H84         2.4020    3.1540   -2.3840 ho        1 MOL      0.438859
    179 H85         2.4480    2.2930   -3.6210 ho        1 MOL      0.438859
    180 O25         0.1520    1.1790   -1.4510 oh        1 MOL     -0.892531
    181 H86         0.1510    1.2210   -2.4100 ho        1 MOL      0.438859
    182 H87        -0.7630    1.3340   -1.2000 ho        1 MOL      0.438859
@<TRIPOS>BOND
     1    1    2 1   
     2    1    4 1   
     3    1    5 1   
     4    1    6 1   
     5    2    3 2   
     6    2    7 1   
     7    7    8 1   
     8    7   15 1   
     9    8    9 1   
    10    8   11 1   
    11    8   16 1   
    12    9   10 2   
    13    9   19 1   
    14   11   12 1   
    15   11   17 1   
    16   11   18 1   
    17   12   13 1   
    18   12   14 1   
    19   19   20 1   
    20   19   28 1   
    21   20   21 1   
    22   20   23 1   
    23   20   29 1   
    24   21   22 2   
    25   21   41 1   
    26   23   24 1   
    27   23   30 1   
    28   23   31 1   
    29   24   25 1   
    30   24   32 1   
    31   24   33 1   
    32   25   26 1   
    33   25   34 1   
    34   25   35 1   
    35   26   27 1   
    36   26   36 1   
    37   26   37 1   
    38   27   38 1   
    39   27   39 1   
    40   27   40 1   
    41   41   42 1   
    42   41   49 1   
    43   42   43 1   
    44   42   45 1   
    45   42   50 1   
    46   43   44 2   
    47   43   53 1   
    48   45   46 1   
    49   45   51 1   
    50   45   52 1   
    51   46   47 1   
    52   46   48 1   
    53   53   54 1   
    54   53   57 1   
    55   54   55 1   
    56   54   58 1   
    57   54   59 1   
    58   55   56 2   
    59   55   60 1   
    60   60   61 1   
    61   60   68 1   
    62   61   62 1   
    63   61   64 1   
    64   61   69 1   
    65   62   63 2   
    66   62   74 1   
    67   64   65 1   
    68   64   70 1   
    69   64   71 1   
    70   65   66 1   
    71   65   67 2   
    72   66   72 1   
    73   66   73 1   
    74   74   75 1   
    75   74   78 1   
    76   75   76 1   
    77   75   79 1   
    78   75   80 1   
    79   76   77 2   
    80   76   81 1   
    81   81   82 1   
    82   81   93 1   
    83   82   83 1   
    84   82   85 1   
    85   82   94 1   
    86   83   84 2   
    87   83  102 1   
    88   85   86 1   
    89   85   95 1   
    90   85   96 1   
    91   86   87 ar  
    92   86   88 ar  
    93   87   89 ar  
    94   87   97 1   
    95   88   90 ar  
    96   88   98 1   
    97   89   91 ar  
    98   89   99 1   
    99   90   91 ar  
   100   90  100 1   
   101   91   92 1   
   102   92  101 1   
   103  102  103 1   
   104  102  110 1   
   105  103  104 1   
   106  103  106 1   
   107  103  111 1   
   108  104  105 2   
   109  104  121 1   
   110  106  107 1   
   111  106  108 1   
   112  106  112 1   
   113  107  109 1   
   114  107  113 1   
   115  107  114 1   
   116  108  115 1   
   117  108  116 1   
   118  108  117 1   
   119  109  118 1   
   120  109  119 1   
   121  109  120 1   
   122  121  122 1   
   123  121  127 1   
   124  122  123 1   
   125  122  125 1   
   126  122  128 1   
   127  123  124 2   
   128  123  132 1   
   129  125  126 1   
   130  125  129 1   
   131  125  130 1   
   132  126  131 1   
   133  132  133 1   
   134  132  137 1   
   135  133  134 1   
   136  133  136 1   
   137  133  138 1   
   138  134  135 2   
   139  134  142 1   
   140  136  139 1   
   141  136  140 1   
   142  136  141 1   
   143  142  143 1   
   144  142  147 1   
   145  143  144 1   
   146  143  146 1   
   147  143  148 1   
   148  144  145 2   
   149  144  152 1   
   150  146  149 1   
   151  146  150 1   
   152  146  151 1   
   153  152  153 1   
   154  152  161 1   
   155  153  154 1   
   156  153  156 1   
   157  153  162 1   
   158  154  155 2   
   159  154  167 1   
   160  156  157 1   
   161  156  163 1   
   162  156  164 1   
   163  157  158 1   
   164  157  165 1   
   165  157  166 1   
   166  158  159 1   
   167  158  160 1   
   168  167  168 1   
   169  167  172 1   
   170  168  169 1   
   171  168  170 1   
   172  168  171 1   
   173  174  175 1   
   174  174  176 1   
   175  177  178 1   
   176  177  179 1   
   177  180  181 1   
   178  180  182 1   
@<TRIPOS>SUBSTRUCTURE
     1 MOL         1 TEMP              0 ****  ****    0 ROOT
