@<TRIPOS>MOLECULE
MOL
  178   175     1     0     0
SMALL
resp


@<TRIPOS>ATOM
      1 C1         10.4330   -4.1230    4.8650 c3        1 MOL     -0.236299
      2 C2          9.3380   -4.0060    3.8240 c         1 MOL      0.657881
      3 O1          8.2280   -4.4680    4.1340 o         1 MOL     -0.594739
      4 H1         10.4330   -5.1310    5.2800 hc        1 MOL      0.045078
      5 H2         11.3990   -3.9200    4.4030 hc        1 MOL      0.045078
      6 H3         10.2540   -3.4030    5.6640 hc        1 MOL      0.045078
      7 N1          9.5590   -3.4510    2.6320 n         1 MOL     -0.342392
      8 C3         10.8000   -3.0440    2.0410 c3        1 MOL     -0.062088
      9 C4         10.8500   -3.3630    0.5050 c         1 MOL      0.449667
     10 O2         10.1260   -4.2660    0.0620 o         1 MOL     -0.468178
     11 C5         10.9760   -1.5400    2.3010 c3        1 MOL     -0.009106
     12 C6          9.8480   -0.6750    1.8450 c         1 MOL      0.452715
     13 O3          8.8140   -0.4920    2.5510 o         1 MOL     -0.658664
     14 O4          9.9840   -0.0740    0.7240 o         1 MOL     -0.658664
     15 H4          8.7720   -3.3360    2.0080 hn        1 MOL      0.286879
     16 H5         11.6800   -3.4370    2.5340 h1        1 MOL      0.086487
     17 H6         11.9170   -1.2130    1.8430 hc        1 MOL     -0.000943
     18 H7         11.0810   -1.3390    3.3730 hc        1 MOL     -0.000943
     19 N2         11.6240   -2.6620   -0.3100 n         1 MOL     -0.501566
     20 C7         11.6090   -2.6350   -1.7930 c3        1 MOL      0.260759
     21 C8         10.2090   -2.5150   -2.4420 c         1 MOL      0.382944
     22 O5          9.9570   -3.0870   -3.4820 o         1 MOL     -0.508992
     23 C9         12.2920   -3.8830   -2.2580 c3        1 MOL     -0.355494
     24 H8         12.1550   -1.9800    0.2330 hn        1 MOL      0.288226
     25 H9         12.1420   -1.7830   -2.2010 h1        1 MOL      0.021677
     26 H10        13.2860   -4.0700   -1.8480 hc        1 MOL      0.097790
     27 H11        11.7350   -4.7950   -2.0090 hc        1 MOL      0.097790
     28 H12        12.3460   -3.8930   -3.3500 hc        1 MOL      0.097790
     29 N3          9.2260   -1.7700   -1.8550 n         1 MOL     -0.131795
     30 C10         7.8710   -1.5670   -2.3530 c3        1 MOL     -0.015840
     31 C11         7.4660   -0.0560   -2.4010 c         1 MOL      0.498383
     32 O6          8.1230    0.7720   -1.8020 o         1 MOL     -0.551077
     33 C12         6.9370   -2.4170   -1.4460 c3        1 MOL     -0.199274
     34 C13         7.1680   -2.1900    0.0300 c         1 MOL      0.664891
     35 O7          7.5390   -3.2130    0.7150 o         1 MOL     -0.622122
     36 O8          6.9510   -1.0960    0.5760 o         1 MOL     -0.622122
     37 H13         9.4550   -1.2090   -1.0370 hn        1 MOL      0.092725
     38 H14         7.7610   -2.0110   -3.3400 h1        1 MOL      0.052784
     39 H15         7.1460   -3.4570   -1.7000 hc        1 MOL      0.080451
     40 H16         5.9060   -2.2240   -1.7530 hc        1 MOL      0.080451
     41 N4          6.2780    0.2510   -3.0690 n         1 MOL     -0.460232
     42 C14         5.7010    1.6360   -3.0730 c3        1 MOL     -0.141623
     43 C15         5.2960    2.1260   -1.6830 c         1 MOL      0.798227
     44 O9          5.5470    1.4230   -0.6750 o         1 MOL     -0.673718
     45 H17         5.7440   -0.4750   -3.5190 hn        1 MOL      0.338444
     46 H18         4.7810    1.7510   -3.6530 h1        1 MOL      0.091098
     47 H19         6.4320    2.3890   -3.3330 h1        1 MOL      0.091098
     48 N5          4.6620    3.2430   -1.6460 n         1 MOL     -0.729074
     49 C16         4.1940    3.8870   -0.4490 c3        1 MOL      0.310887
     50 C17         2.7530    4.3460   -0.4400 c         1 MOL      0.396543
     51 O10         2.2490    4.6920    0.5880 o         1 MOL     -0.508405
     52 C18         5.0900    5.0620    0.0720 c3        1 MOL     -0.189986
     53 C19         6.5780    4.7040    0.2890 c         1 MOL      0.699951
     54 N6          7.4580    5.5390   -0.2330 n         1 MOL     -0.708562
     55 O11         6.9270    3.6800    0.8650 o         1 MOL     -0.695461
     56 H20         4.4030    3.5940   -2.5540 hn        1 MOL      0.313519
     57 H21         4.1910    3.2340    0.4260 h1        1 MOL      0.084980
     58 H22         4.7250    5.5520    0.9710 hc        1 MOL      0.052850
     59 H23         5.0420    5.7770   -0.7530 hc        1 MOL      0.052850
     60 H24         7.0490    6.3780   -0.6080 hn        1 MOL      0.326347
     61 H25         8.4440    5.3190   -0.3000 hn        1 MOL      0.326347
     62 N7          2.0260    4.1010   -1.5160 n         1 MOL     -0.385875
     63 C20         0.5720    4.3250   -1.5890 c3        1 MOL     -0.036428
     64 C21        -0.2560    3.0970   -1.9950 c         1 MOL      0.691663
     65 O12         0.3980    2.1910   -2.4980 o         1 MOL     -0.564858
     66 H26         2.4990    3.9180   -2.3840 hn        1 MOL      0.292392
     67 H27         0.4390    5.0470   -2.4010 h1        1 MOL      0.079789
     68 H28         0.1210    4.6380   -0.6440 h1        1 MOL      0.079789
     69 N8         -1.6160    3.0510   -1.8980 n         1 MOL     -0.601568
     70 C22        -2.5120    4.1440   -1.4170 c3        1 MOL      0.157642
     71 C23        -3.6850    3.5280   -0.6100 c         1 MOL      0.499527
     72 O13        -4.7940    3.4390   -1.1140 o         1 MOL     -0.514691
     73 C24        -2.9930    5.1540   -2.5270 c3        1 MOL      0.277321
     74 C25        -3.1390    6.5910   -2.1020 c3        1 MOL     -0.399225
     75 O14        -1.9420    5.3120   -3.5030 oh        1 MOL     -0.659300
     76 H29        -2.0960    2.1650   -1.9110 hn        1 MOL      0.374584
     77 H30        -1.9070    4.7680   -0.7660 h1        1 MOL      0.010709
     78 H31        -3.9220    4.8210   -2.9790 h1        1 MOL      0.049900
     79 H32        -2.1840    5.9680   -4.1660 ho        1 MOL      0.408463
     80 H33        -2.2400    6.9850   -1.6260 hc        1 MOL      0.099360
     81 H34        -3.5010    7.1500   -2.9630 hc        1 MOL      0.099360
     82 H35        -3.8990    6.6760   -1.3270 hc        1 MOL      0.099360
     83 N9         -3.3590    2.9120    0.5150 n         1 MOL     -0.413741
     84 C26        -4.2210    2.1050    1.2930 c3        1 MOL      0.038063
     85 C27        -4.7680    2.9900    2.4260 c         1 MOL      0.394721
     86 O15        -3.9410    3.3260    3.3270 o         1 MOL     -0.571178
     87 C28        -3.5400    0.8310    1.7860 c3        1 MOL      0.288515
     88 C29        -2.8840    0.0760    0.5800 c3        1 MOL     -0.206001
     89 C30        -4.5220   -0.0700    2.5160 c3        1 MOL     -0.207999
     90 C31        -2.0270   -1.1900    0.9740 c3        1 MOL     -0.145097
     91 H36        -2.4220    2.9020    0.8940 hn        1 MOL      0.247422
     92 H37        -5.0530    1.8910    0.6110 h1        1 MOL      0.050485
     93 H38        -2.7980    1.0480    2.5450 hc        1 MOL     -0.039867
     94 H39        -2.1940    0.7580    0.0830 hc        1 MOL      0.071181
     95 H40        -3.7100   -0.1060   -0.0980 hc        1 MOL      0.071181
     96 H41        -5.1970   -0.4840    1.7630 hc        1 MOL      0.043607
     97 H42        -3.9340   -0.8750    2.9470 hc        1 MOL      0.043607
     98 H43        -5.2260    0.4230    3.1950 hc        1 MOL      0.043607
     99 H44        -1.4540   -1.6660    0.1800 hc        1 MOL      0.045391
    100 H45        -1.3310   -0.8930    1.7600 hc        1 MOL      0.045391
    101 H46        -2.5740   -1.9960    1.4530 hc        1 MOL      0.045391
    102 N10        -5.9800    3.4790    2.3680 n         1 MOL     -0.363152
    103 C32        -7.0830    3.0570    1.4310 c3        1 MOL      0.221947
    104 C33        -7.6870    1.6490    1.7110 c         1 MOL      0.468567
    105 O16        -7.4620    0.9990    2.6870 o         1 MOL     -0.506966
    106 C34        -8.1820    4.1800    1.2640 c3        1 MOL     -0.389395
    107 C35        -8.7220    4.8570    2.5570 c         1 MOL      0.785226
    108 O17        -8.4600    4.5750    3.7420 o         1 MOL     -0.730121
    109 O18        -9.4710    5.8440    2.3210 o         1 MOL     -0.730121
    110 H47        -6.3000    3.9830    3.1760 hn        1 MOL      0.290878
    111 H48        -6.7100    2.9270    0.4100 h1        1 MOL      0.034078
    112 H49        -8.9840    3.7300    0.6690 hc        1 MOL      0.069281
    113 H50        -7.6500    4.9660    0.7290 hc        1 MOL      0.069281
    114 N11        -8.5230    1.1900    0.7630 n         1 MOL     -0.436177
    115 C36        -9.1080   -0.1670    0.6280 c3        1 MOL      0.217964
    116 C37        -9.4850   -0.4270   -0.8640 c         1 MOL      0.308726
    117 O19        -9.8950    0.5560   -1.4680 o         1 MOL     -0.503525
    118 C38       -10.4070   -0.2690    1.4560 c3        1 MOL     -0.387748
    119 C39       -10.8860   -1.7050    1.7020 ca        1 MOL      0.146778
    120 C40       -11.8590   -2.2790    0.8500 ca        1 MOL     -0.179881
    121 C41       -10.3510   -2.5710    2.7320 ca        1 MOL     -0.179881
    122 C42       -12.3740   -3.5220    1.0790 ca        1 MOL     -0.073030
    123 C43       -10.8970   -3.7710    3.0310 ca        1 MOL     -0.073030
    124 C44       -11.9540   -4.2260    2.2040 ca        1 MOL     -0.187901
    125 H51        -8.4920    1.6760   -0.1220 hn        1 MOL      0.282444
    126 H52        -8.4300   -0.9160    1.0450 h1        1 MOL      0.066685
    127 H53       -11.2120    0.2770    0.9700 hc        1 MOL      0.148880
    128 H54       -10.1120    0.1750    2.4120 hc        1 MOL      0.148880
    129 H55       -12.2440   -1.7300    0.0020 ha        1 MOL      0.131018
    130 H56        -9.5740   -2.2230    3.3970 ha        1 MOL      0.131018
    131 H57       -13.1730   -3.8890    0.4520 ha        1 MOL      0.098892
    132 H58       -10.4610   -4.4200    3.7690 ha        1 MOL      0.098892
    133 H59       -12.2950   -5.2380    2.3380 ha        1 MOL      0.097713
    134 N12        -9.5900   -1.6600   -1.4010 n         1 MOL      0.044384
    135 C45        -9.0670   -2.9530   -0.9490 c3        1 MOL      0.397072
    136 C46        -7.5870   -3.0150   -0.6820 c         1 MOL      0.363335
    137 O20        -6.9990   -1.9640   -0.3950 o         1 MOL     -0.533926
    138 C47        -9.5280   -4.0810   -1.9950 c3        1 MOL     -0.581502
    139 C48       -10.7130   -3.3190   -2.6350 c3        1 MOL      0.359237
    140 C49       -10.3910   -1.8090   -2.5260 c3        1 MOL     -0.329235
    141 H60        -9.5060   -3.1620    0.0290 h1        1 MOL     -0.080932
    142 H61        -8.7450   -4.2730   -2.7240 hc        1 MOL      0.140134
    143 H62        -9.8830   -5.0140   -1.5580 hc        1 MOL      0.140134
    144 H63       -10.9570   -3.5400   -3.6750 hc        1 MOL     -0.059919
    145 H64       -11.6400   -3.4770   -2.0850 hc        1 MOL     -0.059919
    146 H65        -9.7690   -1.6070   -3.3990 h1        1 MOL      0.107572
    147 H66       -11.3890   -1.3710   -2.5500 h1        1 MOL      0.107572
    148 N13        -6.9600   -4.1890   -0.8900 n         1 MOL     -0.276577
    149 C50        -5.4880   -4.3910   -0.9620 c3        1 MOL      0.180535
    150 C51        -4.9870   -5.8230   -0.5650 c         1 MOL      0.463483
    151 O21        -4.1470   -6.3790   -1.2430 o         1 MOL     -0.543484
    152 C52        -5.0800   -4.0040   -2.4140 c3        1 MOL     -0.062788
    153 C53        -5.1400   -2.5060   -2.6490 c3        1 MOL     -0.120473
    154 C54        -4.3160   -2.1790   -3.8860 c         1 MOL      0.709240
    155 O22        -3.1370   -1.9100   -3.7020 o         1 MOL     -0.728055
    156 O23        -4.9020   -2.1540   -5.0370 o         1 MOL     -0.728055
    157 H67        -7.4850   -5.0260   -1.0720 hn        1 MOL      0.173507
    158 H68        -4.9620   -3.7370   -0.2730 h1        1 MOL      0.072703
    159 H69        -5.6600   -4.4990   -3.2030 hc        1 MOL      0.023589
    160 H70        -4.0310   -4.2330   -2.6160 hc        1 MOL      0.023589
    161 H71        -4.6670   -2.0310   -1.7880 hc        1 MOL      0.012938
    162 H72        -6.1620   -2.1540   -2.7620 hc        1 MOL      0.012938
    163 N14        -5.4770   -6.4080    0.5120 n         1 MOL     -0.408872
    164 C55        -6.1520   -5.8150    1.6820 c3        1 MOL     -0.000126
    165 H73        -5.4050   -5.4970    2.4090 h1        1 MOL      0.040568
    166 H74        -6.7390   -4.9520    1.3650 h1        1 MOL      0.040568
    167 H75        -6.8100   -6.5550    2.1370 h1        1 MOL      0.040568
    168 H76        -5.1830   -7.3760    0.6150 hn        1 MOL      0.271498
    169 Ca1         7.6830    1.2610    0.9770 Ca        1 MOL      1.727530
    170 O24         5.2990    0.6040    2.4250 oh        1 MOL     -0.744729
    171 H77         4.9560   -0.1480    1.9330 ho        1 MOL      0.382539
    172 H78         4.5340    1.1420    2.5970 ho        1 MOL      0.382539
    173 O25         9.8490    2.7690    0.4180 oh        1 MOL     -0.744729
    174 H79        10.4060    2.6020   -0.3440 ho        1 MOL      0.382539
    175 H80        10.0800    3.6620    0.6860 ho        1 MOL      0.382539
    176 O26         7.7130    2.4970    3.4430 oh        1 MOL     -0.744729
    177 H81         7.1300    2.8220    4.1220 ho        1 MOL      0.382539
    178 H82         8.5120    3.0200    3.5320 ho        1 MOL      0.382539
@<TRIPOS>BOND
     1    1    2 1   
     2    1    4 1   
     3    1    5 1   
     4    1    6 1   
     5    2    3 2   
     6    2    7 1   
     7    7    8 1   
     8    7   15 1   
     9    8    9 1   
    10    8   11 1   
    11    8   16 1   
    12    9   10 2   
    13    9   19 1   
    14   11   12 1   
    15   11   17 1   
    16   11   18 1   
    17   12   13 1   
    18   12   14 1   
    19   19   20 1   
    20   19   24 1   
    21   20   21 1   
    22   20   23 1   
    23   20   25 1   
    24   21   22 2   
    25   21   29 1   
    26   23   26 1   
    27   23   27 1   
    28   23   28 1   
    29   29   30 1   
    30   29   37 1   
    31   30   31 1   
    32   30   33 1   
    33   30   38 1   
    34   31   32 2   
    35   31   41 1   
    36   33   34 1   
    37   33   39 1   
    38   33   40 1   
    39   34   35 1   
    40   34   36 1   
    41   41   42 1   
    42   41   45 1   
    43   42   43 1   
    44   42   46 1   
    45   42   47 1   
    46   43   44 2   
    47   43   48 1   
    48   48   49 1   
    49   48   56 1   
    50   49   50 1   
    51   49   52 1   
    52   49   57 1   
    53   50   51 2   
    54   50   62 1   
    55   52   53 1   
    56   52   58 1   
    57   52   59 1   
    58   53   54 1   
    59   53   55 2   
    60   54   60 1   
    61   54   61 1   
    62   62   63 1   
    63   62   66 1   
    64   63   64 1   
    65   63   67 1   
    66   63   68 1   
    67   64   65 2   
    68   64   69 1   
    69   69   70 1   
    70   69   76 1   
    71   70   71 1   
    72   70   73 1   
    73   70   77 1   
    74   71   72 2   
    75   71   83 1   
    76   73   74 1   
    77   73   75 1   
    78   73   78 1   
    79   74   80 1   
    80   74   81 1   
    81   74   82 1   
    82   75   79 1   
    83   83   84 1   
    84   83   91 1   
    85   84   85 1   
    86   84   87 1   
    87   84   92 1   
    88   85   86 2   
    89   85  102 1   
    90   87   88 1   
    91   87   89 1   
    92   87   93 1   
    93   88   90 1   
    94   88   94 1   
    95   88   95 1   
    96   89   96 1   
    97   89   97 1   
    98   89   98 1   
    99   90   99 1   
   100   90  100 1   
   101   90  101 1   
   102  102  103 1   
   103  102  110 1   
   104  103  104 1   
   105  103  106 1   
   106  103  111 1   
   107  104  105 2   
   108  104  114 1   
   109  106  107 1   
   110  106  112 1   
   111  106  113 1   
   112  107  108 1   
   113  107  109 1   
   114  114  115 1   
   115  114  125 1   
   116  115  116 1   
   117  115  118 1   
   118  115  126 1   
   119  116  117 2   
   120  116  134 1   
   121  118  119 1   
   122  118  127 1   
   123  118  128 1   
   124  119  120 ar  
   125  119  121 ar  
   126  120  122 ar  
   127  120  129 1   
   128  121  123 ar  
   129  121  130 1   
   130  122  124 ar  
   131  122  131 1   
   132  123  124 ar  
   133  123  132 1   
   134  124  133 1   
   135  134  135 1   
   136  134  140 1   
   137  135  136 1   
   138  135  138 1   
   139  135  141 1   
   140  136  137 2   
   141  136  148 1   
   142  138  139 1   
   143  138  142 1   
   144  138  143 1   
   145  139  140 1   
   146  139  144 1   
   147  139  145 1   
   148  140  146 1   
   149  140  147 1   
   150  148  149 1   
   151  148  157 1   
   152  149  150 1   
   153  149  152 1   
   154  149  158 1   
   155  150  151 2   
   156  150  163 1   
   157  152  153 1   
   158  152  159 1   
   159  152  160 1   
   160  153  154 1   
   161  153  161 1   
   162  153  162 1   
   163  154  155 1   
   164  154  156 1   
   165  163  164 1   
   166  163  168 1   
   167  164  165 1   
   168  164  166 1   
   169  164  167 1   
   170  170  171 1   
   171  170  172 1   
   172  173  174 1   
   173  173  175 1   
   174  176  177 1   
   175  176  178 1   
@<TRIPOS>SUBSTRUCTURE
     1 MOL         1 TEMP              0 ****  ****    0 ROOT
