@<TRIPOS>MOLECULE
MOL
  178   175     1     0     0
SMALL
resp


@<TRIPOS>ATOM
      1 C1          1.1730    6.3430   -2.9280 c3        1 MOL     -0.460706
      2 C2          2.3940    6.0280   -1.9860 c         1 MOL      0.688278
      3 O1          2.3190    6.4750   -0.8260 o         1 MOL     -0.567301
      4 H1          1.4150    6.0460   -3.9490 hc        1 MOL      0.106493
      5 H2          0.2980    5.7890   -2.5880 hc        1 MOL      0.106493
      6 H3          0.9590    7.4120   -2.9020 hc        1 MOL      0.106493
      7 N1          3.4440    5.3730   -2.4630 n         1 MOL     -0.506928
      8 C3          4.7600    5.2590   -1.7640 c3        1 MOL      0.002922
      9 C4          4.6310    4.2330   -0.6440 c         1 MOL      0.614550
     10 O2          3.9790    3.1920   -0.8050 o         1 MOL     -0.620081
     11 C5          5.8840    4.8780   -2.7420 c3        1 MOL      0.021475
     12 C6          7.1730    4.8420   -1.9090 c         1 MOL      0.579063
     13 O3          7.9750    3.9080   -2.2840 o         1 MOL     -0.678890
     14 O4          7.4380    5.8370   -1.1530 o         1 MOL     -0.678890
     15 H4          3.4010    4.9770   -3.3910 hn        1 MOL      0.284688
     16 H5          5.0240    6.2310   -1.3600 h1        1 MOL      0.046723
     17 H6          5.8470    5.6080   -3.5560 hc        1 MOL     -0.020163
     18 H7          5.7760    3.9150   -3.2500 hc        1 MOL     -0.020163
     19 N2          5.2310    4.5190    0.4790 n         1 MOL     -0.426656
     20 C7          5.3260    3.6750    1.6690 c3        1 MOL      0.186751
     21 C8          3.9820    3.7660    2.4140 c         1 MOL      0.522384
     22 O5          3.2800    4.7800    2.3790 o         1 MOL     -0.553988
     23 C9          6.5570    4.0720    2.4990 c3        1 MOL     -0.317162
     24 H8          5.6820    5.4220    0.5210 hn        1 MOL      0.271253
     25 H9          5.3720    2.6300    1.3430 h1        1 MOL      0.069889
     26 H10         6.6540    3.4440    3.3800 hc        1 MOL      0.083971
     27 H11         7.4930    3.9940    1.9420 hc        1 MOL      0.083971
     28 H12         6.4390    5.1160    2.7910 hc        1 MOL      0.083971
     29 N3          3.5990    2.7770    3.1850 n         1 MOL     -0.257192
     30 C10         4.3250    1.6130    3.5620 c3        1 MOL     -0.307842
     31 C11         4.4390    0.5690    2.3800 c         1 MOL      0.344063
     32 O6          3.4600    0.1260    1.8580 o         1 MOL     -0.451852
     33 C12         3.7430    1.0290    4.8820 c3        1 MOL     -0.154428
     34 C13         2.2520    0.6610    4.7180 c         1 MOL      0.698973
     35 O7          1.9140   -0.4260    4.2140 o         1 MOL     -0.685446
     36 O8          1.3890    1.4180    5.2350 o         1 MOL     -0.685446
     37 H13         2.7610    2.8700    3.7560 hn        1 MOL      0.259263
     38 H14         5.3140    1.9270    3.8970 h1        1 MOL      0.140145
     39 H15         3.7940    1.7320    5.7190 hc        1 MOL      0.049154
     40 H16         4.3060    0.1330    5.1700 hc        1 MOL      0.049154
     41 N4          5.7020    0.1230    2.1350 n         1 MOL     -0.136645
     42 C14         5.9720   -0.8810    1.0980 c3        1 MOL     -0.051247
     43 C15         7.2890   -0.6850    0.3270 c         1 MOL      0.518489
     44 O9          7.8860    0.4010    0.3980 o         1 MOL     -0.493517
     45 H17         6.4680    0.4780    2.6950 hn        1 MOL      0.201891
     46 H18         5.1400   -0.9800    0.4040 h1        1 MOL      0.050334
     47 H19         6.0610   -1.7840    1.7050 h1        1 MOL      0.050334
     48 N5          7.7230   -1.6110   -0.4960 n         1 MOL     -0.505097
     49 C16         6.9470   -2.8000   -0.7750 c3        1 MOL      0.245759
     50 C17         5.9300   -2.6270   -1.9520 c         1 MOL      0.657434
     51 O10         6.1250   -1.7500   -2.8040 o         1 MOL     -0.500956
     52 C18         7.8670   -3.9660   -1.0680 c3        1 MOL     -0.278381
     53 C19         8.5660   -3.8640   -2.4340 c         1 MOL      0.619971
     54 N6          8.2090   -4.5730   -3.4540 n         1 MOL     -0.774523
     55 O11         9.4260   -3.0250   -2.6320 o         1 MOL     -0.519820
     56 H20         8.6680   -1.5470   -0.8260 hn        1 MOL      0.319638
     57 H21         6.3940   -3.1500    0.0990 h1        1 MOL     -0.020693
     58 H22         7.3190   -4.9030   -1.0110 hc        1 MOL      0.064337
     59 H23         8.6980   -3.9360   -0.3650 hc        1 MOL      0.064337
     60 H24         7.6250   -5.4020   -3.3930 hn        1 MOL      0.368310
     61 H25         8.5600   -4.2470   -4.3360 hn        1 MOL      0.368310
     62 N7          4.8780   -3.4190   -1.9250 n         1 MOL     -0.574864
     63 C20         3.7540   -3.2470   -2.8640 c3        1 MOL     -0.067582
     64 C21         2.4950   -4.1330   -2.5000 c         1 MOL      0.603338
     65 O12         1.6530   -4.2390   -3.3740 o         1 MOL     -0.583591
     66 H26         5.0150   -4.3300   -1.5070 hn        1 MOL      0.252552
     67 H27         4.1150   -3.5130   -3.8620 h1        1 MOL      0.104284
     68 H28         3.4910   -2.1960   -2.8740 h1        1 MOL      0.104284
     69 N8          2.3740   -4.4760   -1.2440 n         1 MOL     -0.386797
     70 C22         1.1180   -5.1450   -0.7870 c3        1 MOL      0.032048
     71 C23         0.0420   -4.0880   -0.4020 c         1 MOL      0.504881
     72 O13         0.3270   -3.1250    0.3680 o         1 MOL     -0.505373
     73 C24         1.3870   -6.1710    0.3030 c3        1 MOL      0.273885
     74 C25         0.1240   -6.7990    0.8950 c3        1 MOL     -0.300304
     75 O14         2.1710   -7.2110   -0.1920 oh        1 MOL     -0.640174
     76 H29         2.9930   -4.1200   -0.5320 hn        1 MOL      0.237284
     77 H30         0.7900   -5.7310   -1.6420 h1        1 MOL      0.136340
     78 H31         1.8930   -5.7410    1.1680 h1        1 MOL     -0.062899
     79 H32         2.4700   -7.6050    0.6310 ho        1 MOL      0.399740
     80 H33        -0.3870   -5.9550    1.3760 hc        1 MOL      0.096998
     81 H34        -0.5280   -7.1550    0.1050 hc        1 MOL      0.096998
     82 H35         0.3320   -7.5070    1.6890 hc        1 MOL      0.096998
     83 N9         -1.0770   -4.0760   -1.1200 n         1 MOL     -0.316537
     84 C26        -2.1960   -3.1140   -1.0010 c3        1 MOL     -0.054048
     85 C27        -3.0680   -3.4710    0.2740 c         1 MOL      0.286527
     86 O15        -3.3670   -4.6580    0.5510 o         1 MOL     -0.538136
     87 C28        -3.0440   -3.1220   -2.2850 c3        1 MOL      0.087111
     88 C29        -4.1760   -2.0650   -2.2920 c3        1 MOL      0.246233
     89 C30        -2.1580   -2.7990   -3.5670 c3        1 MOL     -0.343124
     90 C31        -5.2990   -2.2400   -3.3050 c3        1 MOL     -0.437882
     91 H36        -1.1020   -4.7100   -1.9090 hn        1 MOL      0.231078
     92 H37        -1.8530   -2.0890   -0.8900 h1        1 MOL      0.138299
     93 H38        -3.4860   -4.1030   -2.4620 hc        1 MOL      0.024334
     94 H39        -3.7570   -1.0610   -2.3970 hc        1 MOL     -0.052212
     95 H40        -4.6280   -1.9400   -1.3060 hc        1 MOL     -0.052212
     96 H41        -2.6890   -2.8520   -4.5170 hc        1 MOL      0.090816
     97 H42        -1.8090   -1.7700   -3.6470 hc        1 MOL      0.090816
     98 H43        -1.2070   -3.3250   -3.5690 hc        1 MOL      0.090816
     99 H44        -5.6480   -3.2660   -3.2120 hc        1 MOL      0.097173
    100 H45        -6.1520   -1.6300   -2.9930 hc        1 MOL      0.097173
    101 H46        -4.9660   -1.8890   -4.2730 hc        1 MOL      0.097173
    102 N10        -3.2290   -2.4870    1.1730 n         1 MOL      0.166901
    103 C32        -4.0910   -2.4780    2.3570 c3        1 MOL      0.058664
    104 C33        -5.4580   -1.8590    2.0670 c         1 MOL      0.365606
    105 O16        -6.4250   -2.3660    2.6250 o         1 MOL     -0.554692
    106 C34        -3.3240   -1.7720    3.5370 c3        1 MOL     -0.238277
    107 C35        -1.9880   -2.5080    3.6380 c         1 MOL      0.747197
    108 O17        -1.9740   -3.6380    4.0780 o         1 MOL     -0.714701
    109 O18        -0.8840   -1.9260    3.3550 o         1 MOL     -0.714701
    110 H47        -2.8240   -1.6160    0.8610 hn        1 MOL     -0.293981
    111 H48        -4.1630   -3.5420    2.5800 h1        1 MOL      0.091998
    112 H49        -3.8670   -1.8950    4.4710 hc        1 MOL      0.068143
    113 H50        -3.0900   -0.7300    3.2910 hc        1 MOL      0.068143
    114 N11        -5.5910   -0.8820    1.1960 n         1 MOL     -0.395138
    115 C36        -6.8390   -0.1450    0.9010 c3        1 MOL      0.406354
    116 C37        -6.5360    1.3660    0.5800 c         1 MOL      0.122117
    117 O19        -7.0050    1.8820   -0.4420 o         1 MOL     -0.444074
    118 C38        -7.6490   -1.0380   -0.0480 c3        1 MOL     -0.240764
    119 C39        -8.9590   -0.5800   -0.5330 ca        1 MOL      0.150493
    120 C40        -9.4170   -1.1460   -1.8330 ca        1 MOL     -0.226280
    121 C41        -9.7440    0.3680    0.1520 ca        1 MOL     -0.226280
    122 C42       -10.6660   -0.7240   -2.3110 ca        1 MOL     -0.022971
    123 C43       -10.9420    0.8180   -0.4160 ca        1 MOL     -0.022971
    124 C44       -11.3840    0.2480   -1.6500 ca        1 MOL     -0.244379
    125 H51        -4.6930   -0.5680    0.8350 hn        1 MOL      0.383647
    126 H52        -7.4260   -0.1380    1.8120 h1        1 MOL     -0.008644
    127 H53        -7.7750   -1.9620    0.5220 hc        1 MOL      0.099633
    128 H54        -6.9690   -1.2480   -0.8760 hc        1 MOL      0.099633
    129 H55        -8.7240   -1.8000   -2.3540 ha        1 MOL      0.125573
    130 H56        -9.4550    0.6900    1.1470 ha        1 MOL      0.125573
    131 H57       -11.0660   -1.1360   -3.2220 ha        1 MOL      0.085797
    132 H58       -11.6290    1.5020    0.0530 ha        1 MOL      0.085797
    133 H59       -12.3000    0.7130   -2.0140 ha        1 MOL      0.119715
    134 N12        -5.6870    2.1230    1.3430 n         1 MOL      0.086269
    135 C45        -5.4740    3.6090    1.0380 c3        1 MOL      0.013654
    136 C46        -4.7650    3.9470   -0.2770 c         1 MOL      0.184105
    137 O20        -4.8010    5.0260   -0.8710 o         1 MOL     -0.453248
    138 C47        -4.7410    4.1670    2.2630 c3        1 MOL     -0.001608
    139 C48        -4.8850    3.1200    3.4040 c3        1 MOL     -0.247379
    140 C49        -5.1590    1.7800    2.6900 c3        1 MOL     -0.086206
    141 H60        -6.5180    3.9210    0.9720 h1        1 MOL      0.069130
    142 H61        -3.7440    4.5270    1.9890 hc        1 MOL      0.045445
    143 H62        -5.3060    5.0540    2.5610 hc        1 MOL      0.045445
    144 H63        -3.9200    3.1430    3.9000 hc        1 MOL      0.095924
    145 H64        -5.6710    3.3420    4.1230 hc        1 MOL      0.095924
    146 H65        -4.2520    1.1870    2.6560 h1        1 MOL      0.069901
    147 H66        -5.8940    1.2070    3.2630 h1        1 MOL      0.069901
    148 N13        -4.0970    2.9040   -0.7800 n         1 MOL      0.050258
    149 C50        -3.5140    2.9540   -2.1130 c3        1 MOL     -0.186889
    150 C51        -4.5890    3.0270   -3.2120 c         1 MOL      0.448555
    151 O21        -4.4010    3.9030   -4.0860 o         1 MOL     -0.536279
    152 C52        -2.6470    1.6800   -2.3490 c3        1 MOL      0.306908
    153 C53        -1.5570    1.3460   -1.2880 c3        1 MOL     -0.252146
    154 C54        -2.0970    0.3520   -0.2250 c         1 MOL      0.703636
    155 O22        -1.2230   -0.2320    0.4910 o         1 MOL     -0.641274
    156 O23        -3.3050    0.2610    0.0270 o         1 MOL     -0.641274
    157 H67        -4.0150    2.0420   -0.2630 hn        1 MOL      0.057645
    158 H68        -2.8210    3.8020   -2.1690 h1        1 MOL      0.108071
    159 H69        -2.1120    1.9050   -3.2790 hc        1 MOL     -0.075901
    160 H70        -3.2830    0.8310   -2.6090 hc        1 MOL     -0.075901
    161 H71        -1.2500    2.2030   -0.6820 hc        1 MOL      0.058397
    162 H72        -0.6800    0.9140   -1.7770 hc        1 MOL      0.058397
    163 N14        -5.7080    2.3160   -3.0430 n         1 MOL     -0.110308
    164 C55        -6.7660    2.4330   -3.9850 c3        1 MOL     -0.178337
    165 H73        -6.3540    2.6780   -4.9640 h1        1 MOL      0.070832
    166 H74        -7.3060    1.4880   -4.0460 h1        1 MOL      0.070832
    167 H75        -7.4470    3.2220   -3.6700 h1        1 MOL      0.070832
    168 H76        -5.7940    1.6270   -2.3140 hn        1 MOL      0.188246
    169 Ca1         0.9680   -1.0110    1.8780 Ca        1 MOL      1.763184
    170 O24         2.1370   -3.5010    2.4580 oh        1 MOL     -0.963824
    171 H77         1.5910   -4.1190    2.9390 ho        1 MOL      0.461151
    172 H78         2.8050   -4.0390    2.0400 ho        1 MOL      0.461151
    173 O25         0.2440    1.4630    2.3710 oh        1 MOL     -0.963824
    174 H79         0.4450    2.3930    2.4320 ho        1 MOL      0.461151
    175 H80        -0.6730    1.4230    2.0970 ho        1 MOL      0.461151
    176 O26         2.0850   -0.6090   -0.6720 oh        1 MOL     -0.963824
    177 H81         1.6790    0.0940   -1.1800 ho        1 MOL      0.461151
    178 H82         3.0200   -0.4990   -0.8090 ho        1 MOL      0.461151
@<TRIPOS>BOND
     1    1    2 1   
     2    1    4 1   
     3    1    5 1   
     4    1    6 1   
     5    2    3 2   
     6    2    7 1   
     7    7    8 1   
     8    7   15 1   
     9    8    9 1   
    10    8   11 1   
    11    8   16 1   
    12    9   10 2   
    13    9   19 1   
    14   11   12 1   
    15   11   17 1   
    16   11   18 1   
    17   12   13 1   
    18   12   14 1   
    19   19   20 1   
    20   19   24 1   
    21   20   21 1   
    22   20   23 1   
    23   20   25 1   
    24   21   22 2   
    25   21   29 1   
    26   23   26 1   
    27   23   27 1   
    28   23   28 1   
    29   29   30 1   
    30   29   37 1   
    31   30   31 1   
    32   30   33 1   
    33   30   38 1   
    34   31   32 2   
    35   31   41 1   
    36   33   34 1   
    37   33   39 1   
    38   33   40 1   
    39   34   35 1   
    40   34   36 1   
    41   41   42 1   
    42   41   45 1   
    43   42   43 1   
    44   42   46 1   
    45   42   47 1   
    46   43   44 2   
    47   43   48 1   
    48   48   49 1   
    49   48   56 1   
    50   49   50 1   
    51   49   52 1   
    52   49   57 1   
    53   50   51 2   
    54   50   62 1   
    55   52   53 1   
    56   52   58 1   
    57   52   59 1   
    58   53   54 1   
    59   53   55 2   
    60   54   60 1   
    61   54   61 1   
    62   62   63 1   
    63   62   66 1   
    64   63   64 1   
    65   63   67 1   
    66   63   68 1   
    67   64   65 2   
    68   64   69 1   
    69   69   70 1   
    70   69   76 1   
    71   70   71 1   
    72   70   73 1   
    73   70   77 1   
    74   71   72 2   
    75   71   83 1   
    76   73   74 1   
    77   73   75 1   
    78   73   78 1   
    79   74   80 1   
    80   74   81 1   
    81   74   82 1   
    82   75   79 1   
    83   83   84 1   
    84   83   91 1   
    85   84   85 1   
    86   84   87 1   
    87   84   92 1   
    88   85   86 2   
    89   85  102 1   
    90   87   88 1   
    91   87   89 1   
    92   87   93 1   
    93   88   90 1   
    94   88   94 1   
    95   88   95 1   
    96   89   96 1   
    97   89   97 1   
    98   89   98 1   
    99   90   99 1   
   100   90  100 1   
   101   90  101 1   
   102  102  103 1   
   103  102  110 1   
   104  103  104 1   
   105  103  106 1   
   106  103  111 1   
   107  104  105 2   
   108  104  114 1   
   109  106  107 1   
   110  106  112 1   
   111  106  113 1   
   112  107  108 1   
   113  107  109 1   
   114  114  115 1   
   115  114  125 1   
   116  115  116 1   
   117  115  118 1   
   118  115  126 1   
   119  116  117 2   
   120  116  134 1   
   121  118  119 1   
   122  118  127 1   
   123  118  128 1   
   124  119  120 ar  
   125  119  121 ar  
   126  120  122 ar  
   127  120  129 1   
   128  121  123 ar  
   129  121  130 1   
   130  122  124 ar  
   131  122  131 1   
   132  123  124 ar  
   133  123  132 1   
   134  124  133 1   
   135  134  135 1   
   136  134  140 1   
   137  135  136 1   
   138  135  138 1   
   139  135  141 1   
   140  136  137 2   
   141  136  148 1   
   142  138  139 1   
   143  138  142 1   
   144  138  143 1   
   145  139  140 1   
   146  139  144 1   
   147  139  145 1   
   148  140  146 1   
   149  140  147 1   
   150  148  149 1   
   151  148  157 1   
   152  149  150 1   
   153  149  152 1   
   154  149  158 1   
   155  150  151 2   
   156  150  163 1   
   157  152  153 1   
   158  152  159 1   
   159  152  160 1   
   160  153  154 1   
   161  153  161 1   
   162  153  162 1   
   163  154  155 1   
   164  154  156 1   
   165  163  164 1   
   166  163  168 1   
   167  164  165 1   
   168  164  166 1   
   169  164  167 1   
   170  170  171 1   
   171  170  172 1   
   172  173  174 1   
   173  173  175 1   
   174  176  177 1   
   175  176  178 1   
@<TRIPOS>SUBSTRUCTURE
     1 MOL         1 TEMP              0 ****  ****    0 ROOT
