@<TRIPOS>MOLECULE
MOL
  192   187     1     0     0
SMALL
resp


@<TRIPOS>ATOM
      1 C1         -9.7110    0.3320   -2.2790 c3        1 MOL     -0.445499
      2 C2         -8.5400    0.0520   -1.3330 c         1 MOL      0.691058
      3 O1         -7.3990   -0.2050   -1.7450 o         1 MOL     -0.666516
      4 H1        -10.5410    0.7560   -1.7140 hc        1 MOL      0.119320
      5 H2         -9.3980    1.0390   -3.0480 hc        1 MOL      0.119320
      6 H3        -10.0300   -0.5980   -2.7490 hc        1 MOL      0.119320
      7 N1         -8.7790    0.0570   -0.0280 n         1 MOL     -0.463774
      8 C3         -7.7900   -0.0800    1.0100 c3        1 MOL     -0.008991
      9 C4         -7.2540   -1.5130    1.2380 c         1 MOL      0.528417
     10 O2         -7.3160   -2.0420    2.4130 o         1 MOL     -0.446669
     11 C5         -8.2780    0.5840    2.2900 c3        1 MOL     -0.186497
     12 C6         -9.5300    0.1670    2.9120 c         1 MOL      0.671207
     13 O3         -9.8370    0.5670    4.0780 o         1 MOL     -0.624927
     14 O4        -10.2720   -0.6940    2.3800 o         1 MOL     -0.624927
     15 H4         -9.7290    0.1490    0.2880 hn        1 MOL      0.259138
     16 H5         -6.9370    0.5400    0.7470 h1        1 MOL      0.145489
     17 H6         -8.2020    1.6590    2.1730 hc        1 MOL      0.064977
     18 H7         -7.5390    0.3950    3.0720 hc        1 MOL      0.064977
     19 N2         -6.8120   -2.1740    0.1730 n         1 MOL     -0.516422
     20 C7         -6.2230   -3.4880    0.3080 c3        1 MOL      0.113785
     21 C8         -4.8640   -3.5460    0.9830 c         1 MOL      0.423326
     22 O5         -4.6380   -4.4120    1.7820 o         1 MOL     -0.527301
     23 C9         -6.1330   -4.2070   -1.0280 c3        1 MOL     -0.071879
     24 C10        -7.5820   -4.3530   -1.5170 c3        1 MOL     -0.035849
     25 C11        -7.6990   -5.4410   -2.5960 c3        1 MOL      0.016789
     26 C12        -9.0820   -5.4240   -3.1070 c3        1 MOL      0.122911
     27 N3         -9.5320   -6.6490   -3.7730 n4        1 MOL     -0.193198
     28 H8         -6.7320   -1.7040   -0.7240 hn        1 MOL      0.341651
     29 H9         -6.9190   -4.0420    0.9360 h1        1 MOL      0.075779
     30 H10        -5.6730   -5.1890   -0.8660 hc        1 MOL      0.032323
     31 H11        -5.5590   -3.6440   -1.7610 hc        1 MOL      0.032323
     32 H12        -7.9830   -3.3970   -1.8830 hc        1 MOL      0.044721
     33 H13        -8.1710   -4.6200   -0.6400 hc        1 MOL      0.044721
     34 H14        -7.4630   -6.4560   -2.2750 hc        1 MOL      0.014847
     35 H15        -7.0460   -5.2280   -3.4350 hc        1 MOL      0.014847
     36 H16        -9.0410   -4.6750   -3.8910 hx        1 MOL      0.030504
     37 H17        -9.7840   -5.0460   -2.3700 hx        1 MOL      0.030504
     38 H18        -9.9800   -7.2690   -3.1140 hn        1 MOL      0.224542
     39 H19       -10.2650   -6.5380   -4.4610 hn        1 MOL      0.224542
     40 H20        -8.7790   -7.1730   -4.1820 hn        1 MOL      0.224542
     41 N4         -3.8140   -2.7510    0.6720 n         1 MOL     -0.248762
     42 C13        -3.6920   -1.8520   -0.4750 c3        1 MOL     -0.027953
     43 C14        -3.7580   -0.4160    0.0180 c         1 MOL      0.136159
     44 O6         -4.0070   -0.1290    1.1530 o         1 MOL     -0.449722
     45 C15        -2.4440   -2.1680   -1.3220 c3        1 MOL     -0.232074
     46 C16        -1.2310   -2.2890   -0.5110 c         1 MOL      0.611002
     47 O7         -0.8770   -1.4030    0.3310 o         1 MOL     -0.617471
     48 O8         -0.4880   -3.2460   -0.8180 o         1 MOL     -0.617471
     49 H21        -3.0140   -2.8250    1.2790 hn        1 MOL      0.309419
     50 H22        -4.5380   -1.9470   -1.1510 h1        1 MOL      0.111920
     51 H23        -2.3030   -1.3990   -2.0770 hc        1 MOL      0.072608
     52 H24        -2.6950   -3.1490   -1.7200 hc        1 MOL      0.072608
     53 N5         -3.6940    0.5040   -0.9620 n         1 MOL     -0.091945
     54 C17        -3.9960    1.9220   -0.7130 c3        1 MOL     -0.165452
     55 C18        -2.8130    2.5800    0.0550 c         1 MOL      0.858608
     56 O9         -1.7480    2.0070    0.1580 o         1 MOL     -0.925212
     57 H25        -3.4830    0.1770   -1.8930 hn        1 MOL      0.217250
     58 H26        -4.8960    1.9490   -0.0930 h1        1 MOL      0.069294
     59 H27        -4.0820    2.4610   -1.6560 h1        1 MOL      0.069294
     60 N6         -2.9900    3.8350    0.4770 n         1 MOL     -0.525684
     61 C19        -2.1730    4.6670    1.3820 c3        1 MOL      0.377057
     62 C20        -2.4270    6.1460    0.9930 c         1 MOL      0.362777
     63 O10        -3.5300    6.5080    0.6360 o         1 MOL     -0.496315
     64 C21        -2.3730    4.4320    2.9200 c3        1 MOL     -0.204067
     65 C22        -1.6200    3.2560    3.5500 c         1 MOL      0.618353
     66 O11        -0.5970    2.8450    2.9530 o         1 MOL     -0.672009
     67 O12        -2.0220    2.7370    4.6320 o         1 MOL     -0.672009
     68 H28        -3.9290    4.1310    0.2620 hn        1 MOL      0.234609
     69 H29        -1.1420    4.5070    1.0510 h1        1 MOL      0.040891
     70 H30        -3.4300    4.2060    3.0320 hc        1 MOL      0.059669
     71 H31        -2.1240    5.3880    3.4000 hc        1 MOL      0.059669
     72 N7         -1.4630    7.0670    1.2670 n         1 MOL     -0.453441
     73 C23        -0.0610    6.8560    1.4620 c3        1 MOL      0.050769
     74 C24         0.7850    6.3660    0.2510 c         1 MOL      0.559694
     75 O13         0.4620    6.5860   -0.9210 o         1 MOL     -0.510110
     76 H32        -1.7570    7.9950    1.0080 hn        1 MOL      0.312861
     77 H33        -0.0220    6.0690    2.2150 h1        1 MOL      0.046606
     78 H34         0.4880    7.6920    1.8930 h1        1 MOL      0.046606
     79 N8          1.8780    5.6650    0.5450 n         1 MOL     -0.592938
     80 C25         2.5810    4.8630   -0.4390 c3        1 MOL      0.000884
     81 C26         1.6560    3.7430   -0.8490 c         1 MOL      0.766466
     82 O14         0.9770    3.1170    0.0260 o         1 MOL     -0.758391
     83 C27         3.9350    4.3370    0.1900 c3        1 MOL      0.680203
     84 C28         5.0780    5.3940    0.5060 c3        1 MOL     -0.314689
     85 O15         4.4210    3.2980   -0.6010 oh        1 MOL     -0.743149
     86 H35         2.1120    5.4900    1.5110 hn        1 MOL      0.292195
     87 H36         2.9020    5.4750   -1.2870 h1        1 MOL      0.044268
     88 H37         3.7350    3.8660    1.1490 h1        1 MOL     -0.114644
     89 H38         4.2740    2.5130   -0.0740 ho        1 MOL      0.424635
     90 H39         5.3230    5.9830   -0.3760 hc        1 MOL      0.075670
     91 H40         4.8170    6.0930    1.2980 hc        1 MOL      0.075670
     92 H41         5.9040    4.7380    0.8160 hc        1 MOL      0.075670
     93 N9          1.6560    3.4950   -2.1730 n         1 MOL     -0.498886
     94 C29         0.9440    2.3990   -2.9490 c3        1 MOL     -0.032498
     95 C30         1.2480    0.9780   -2.4370 c         1 MOL      0.141179
     96 O16         0.9550    0.5570   -1.3460 o         1 MOL     -0.260985
     97 C31        -0.5180    2.7080   -3.0830 c3        1 MOL     -0.115086
     98 C32        -0.8190    4.1380   -3.6320 c3        1 MOL      0.184216
     99 C33        -1.1260    1.6550   -4.0100 c3        1 MOL     -0.452364
    100 C34        -2.1430    4.7200   -3.1670 c3        1 MOL     -0.365395
    101 H42         2.2600    4.0930   -2.7070 hn        1 MOL      0.289727
    102 H43         1.3500    2.4340   -3.9600 h1        1 MOL      0.093961
    103 H44        -0.9610    2.7000   -2.0780 hc        1 MOL      0.288013
    104 H45        -0.8180    4.2350   -4.7160 hc        1 MOL     -0.016823
    105 H46        -0.0630    4.8420   -3.2980 hc        1 MOL     -0.016823
    106 H47        -1.1100    0.6580   -3.5810 hc        1 MOL      0.128929
    107 H48        -2.1880    1.8650   -4.1640 hc        1 MOL      0.128929
    108 H49        -0.5520    1.6340   -4.9450 hc        1 MOL      0.128929
    109 H50        -2.9250    3.9670   -3.1870 hc        1 MOL      0.092950
    110 H51        -1.9720    5.1090   -2.1650 hc        1 MOL      0.092950
    111 H52        -2.3430    5.6410   -3.7160 hc        1 MOL      0.092950
    112 N10         1.9340    0.1790   -3.3140 n         1 MOL     -0.071928
    113 C35         2.3370   -1.2120   -2.9690 c3        1 MOL     -0.141561
    114 C36         3.8270   -1.4640   -2.9150 c         1 MOL      0.585613
    115 O17         4.1960   -2.5050   -2.4700 o         1 MOL     -0.565408
    116 C37         1.5750   -2.3660   -3.7260 c3        1 MOL      0.353099
    117 C38         1.7090   -2.1460   -5.2050 c3        1 MOL     -0.238010
    118 O18         0.1770   -2.3660   -3.5800 oh        1 MOL     -0.581113
    119 H53         2.1850    0.6100   -4.1950 hn        1 MOL      0.213138
    120 H54         2.0280   -1.4120   -1.9450 h1        1 MOL      0.077619
    121 H55         1.9850   -3.3330   -3.4470 h1        1 MOL      0.038154
    122 H56        -0.0160   -2.8580   -2.7690 ho        1 MOL      0.340123
    123 H57         1.1450   -1.2380   -5.4420 hc        1 MOL      0.045392
    124 H58         2.7660   -2.0070   -5.4450 hc        1 MOL      0.045392
    125 H59         1.4020   -2.9940   -5.8340 hc        1 MOL      0.045392
    126 N11         4.6760   -0.4600   -3.2630 n         1 MOL     -0.395811
    127 C39         6.1600   -0.3860   -3.1370 c3        1 MOL      0.079002
    128 C40         6.6100   -0.5370   -1.6930 c         1 MOL      0.201475
    129 O19         6.5300    0.4330   -0.8360 o         1 MOL     -0.470743
    130 C41         6.8520    0.8810   -3.7070 c3        1 MOL      0.478805
    131 C42         8.3590    0.7240   -3.7460 c3        1 MOL     -0.485200
    132 O20         6.3200    1.0360   -4.9850 oh        1 MOL     -0.628093
    133 H60         4.1900    0.2980   -3.7200 hn        1 MOL      0.174779
    134 H61         6.6240   -1.2050   -3.6810 h1        1 MOL      0.056416
    135 H62         6.4910    1.7560   -3.1560 h1        1 MOL     -0.011605
    136 H63         6.0200    1.9450   -4.9980 ho        1 MOL      0.387139
    137 H64         8.6840   -0.1850   -4.2430 hc        1 MOL      0.121850
    138 H65         8.6510    1.5510   -4.3860 hc        1 MOL      0.121850
    139 H66         8.8190    0.9020   -2.7730 hc        1 MOL      0.121850
    140 N12         7.0180   -1.7300   -1.3320 n         1 MOL     -0.110013
    141 C43         7.3760   -2.1640    0.0340 c3        1 MOL     -0.015275
    142 C44         6.3060   -1.8390    1.1640 c         1 MOL      0.479913
    143 O21         6.6240   -1.1760    2.1510 o         1 MOL     -0.469310
    144 C45         8.8340   -1.7280    0.4210 c3        1 MOL     -0.254387
    145 C46         9.4800   -2.8340    1.2300 c3        1 MOL      0.008582
    146 C47        11.0520   -2.6680    1.1250 c3        1 MOL      0.063261
    147 C48        11.8450   -3.8720    1.6040 c3        1 MOL      0.096920
    148 N13        13.2450   -3.5630    1.5640 n4        1 MOL     -0.193813
    149 H67         7.2630   -2.3410   -2.0990 hn        1 MOL      0.195079
    150 H68         7.4230   -3.2460   -0.0750 h1        1 MOL      0.059341
    151 H69         8.8520   -0.7850    0.9670 hc        1 MOL      0.112521
    152 H70         9.3910   -1.6540   -0.5130 hc        1 MOL      0.112521
    153 H71         9.2290   -3.8150    0.8320 hc        1 MOL      0.044529
    154 H72         9.1890   -2.7580    2.2680 hc        1 MOL      0.044529
    155 H73        11.3160   -1.7530    1.6630 hc        1 MOL     -0.014489
    156 H74        11.2690   -2.5100    0.0670 hc        1 MOL     -0.014489
    157 H75        11.5680   -4.7320    1.0080 hx        1 MOL      0.036427
    158 H76        11.5260   -4.0630    2.6320 hx        1 MOL      0.036427
    159 H77        13.5850   -3.5210    0.6190 hn        1 MOL      0.203140
    160 H78        13.4680   -2.6880    2.0190 hn        1 MOL      0.203140
    161 H79        13.7490   -4.2550    2.0870 hn        1 MOL      0.203140
    162 N14         5.1120   -2.3690    0.8960 n         1 MOL     -0.543545
    163 C49         3.9450   -2.0830    1.8020 c3        1 MOL      0.476213
    164 C50         2.5740   -2.1090    1.1220 c         1 MOL      0.697660
    165 O22         1.9820   -1.0810    0.9880 o         1 MOL     -0.831383
    166 C51         3.8410   -3.0380    3.0230 c3        1 MOL     -0.127056
    167 C52         4.2610   -2.4300    4.3860 c3        1 MOL     -0.144017
    168 C53         3.8470   -3.2440    5.5460 c         1 MOL      0.759184
    169 O23         4.6200   -3.2590    6.4900 o         1 MOL     -0.651390
    170 O24         2.7800   -3.8490    5.6930 o         1 MOL     -0.651390
    171 H80         4.9710   -2.9520    0.0780 hn        1 MOL      0.264825
    172 H81         3.9510   -1.0500    2.1560 h1        1 MOL     -0.059536
    173 H82         4.3660   -3.9840    2.8470 hc        1 MOL      0.016169
    174 H83         2.7820   -3.2070    3.1640 hc        1 MOL      0.016169
    175 H84         3.6110   -1.5630    4.5160 hc        1 MOL      0.012830
    176 H85         5.2870   -2.0510    4.4580 hc        1 MOL      0.012830
    177 N15         1.8580   -3.1790    0.6910 n         1 MOL     -0.431662
    178 C54         2.3080   -4.6400    0.7290 c3        1 MOL     -0.139110
    179 H86         2.9410   -4.8020    1.6010 h1        1 MOL      0.073720
    180 H87         1.4330   -5.2880    0.7910 h1        1 MOL      0.073720
    181 H88         2.8690   -4.8720   -0.1760 h1        1 MOL      0.073720
    182 H89         0.9700   -2.9170    0.2910 hn        1 MOL      0.353953
    183 Ca1         0.2190    0.7660    1.2980 Ca        1 MOL      1.831526
    184 O25         2.6490    1.6770    2.4210 oh        1 MOL     -0.831862
    185 H90         3.5390    1.9330    2.1880 ho        1 MOL      0.416611
    186 H91         2.7010    1.4020    3.3360 ho        1 MOL      0.416611
    187 O26         0.7370   -0.4020    3.7010 oh        1 MOL     -0.831862
    188 H92         1.0670    0.2950    4.2560 ho        1 MOL      0.416611
    189 H93         0.6710   -1.1650    4.2810 ho        1 MOL      0.416611
    190 O27        -2.0580    0.2770    2.8700 oh        1 MOL     -0.831862
    191 H94        -2.3940    0.7890    3.6050 ho        1 MOL      0.416611
    192 H95        -2.8090    0.1490    2.3030 ho        1 MOL      0.416611
@<TRIPOS>BOND
     1    1    2 1   
     2    1    4 1   
     3    1    5 1   
     4    1    6 1   
     5    2    3 2   
     6    2    7 1   
     7    7    8 1   
     8    7   15 1   
     9    8    9 1   
    10    8   11 1   
    11    8   16 1   
    12    9   10 2   
    13    9   19 1   
    14   11   12 1   
    15   11   17 1   
    16   11   18 1   
    17   12   13 1   
    18   12   14 1   
    19   19   20 1   
    20   19   28 1   
    21   20   21 1   
    22   20   23 1   
    23   20   29 1   
    24   21   22 2   
    25   21   41 1   
    26   23   24 1   
    27   23   30 1   
    28   23   31 1   
    29   24   25 1   
    30   24   32 1   
    31   24   33 1   
    32   25   26 1   
    33   25   34 1   
    34   25   35 1   
    35   26   27 1   
    36   26   36 1   
    37   26   37 1   
    38   27   38 1   
    39   27   39 1   
    40   27   40 1   
    41   41   42 1   
    42   41   49 1   
    43   42   43 1   
    44   42   45 1   
    45   42   50 1   
    46   43   44 2   
    47   43   53 1   
    48   45   46 1   
    49   45   51 1   
    50   45   52 1   
    51   46   47 1   
    52   46   48 1   
    53   53   54 1   
    54   53   57 1   
    55   54   55 1   
    56   54   58 1   
    57   54   59 1   
    58   55   56 2   
    59   55   60 1   
    60   60   61 1   
    61   60   68 1   
    62   61   62 1   
    63   61   64 1   
    64   61   69 1   
    65   62   63 2   
    66   62   72 1   
    67   64   65 1   
    68   64   70 1   
    69   64   71 1   
    70   65   66 1   
    71   65   67 1   
    72   72   73 1   
    73   72   76 1   
    74   73   74 1   
    75   73   77 1   
    76   73   78 1   
    77   74   75 2   
    78   74   79 1   
    79   79   80 1   
    80   79   86 1   
    81   80   81 1   
    82   80   83 1   
    83   80   87 1   
    84   81   82 2   
    85   81   93 1   
    86   83   84 1   
    87   83   85 1   
    88   83   88 1   
    89   84   90 1   
    90   84   91 1   
    91   84   92 1   
    92   85   89 1   
    93   93   94 1   
    94   93  101 1   
    95   94   95 1   
    96   94   97 1   
    97   94  102 1   
    98   95   96 2   
    99   95  112 1   
   100   97   98 1   
   101   97   99 1   
   102   97  103 1   
   103   98  100 1   
   104   98  104 1   
   105   98  105 1   
   106   99  106 1   
   107   99  107 1   
   108   99  108 1   
   109  100  109 1   
   110  100  110 1   
   111  100  111 1   
   112  112  113 1   
   113  112  119 1   
   114  113  114 1   
   115  113  116 1   
   116  113  120 1   
   117  114  115 2   
   118  114  126 1   
   119  116  117 1   
   120  116  118 1   
   121  116  121 1   
   122  117  123 1   
   123  117  124 1   
   124  117  125 1   
   125  118  122 1   
   126  126  127 1   
   127  126  133 1   
   128  127  128 1   
   129  127  130 1   
   130  127  134 1   
   131  128  129 2   
   132  128  140 1   
   133  130  131 1   
   134  130  132 1   
   135  130  135 1   
   136  131  137 1   
   137  131  138 1   
   138  131  139 1   
   139  132  136 1   
   140  140  141 1   
   141  140  149 1   
   142  141  142 1   
   143  141  144 1   
   144  141  150 1   
   145  142  143 2   
   146  142  162 1   
   147  144  145 1   
   148  144  151 1   
   149  144  152 1   
   150  145  146 1   
   151  145  153 1   
   152  145  154 1   
   153  146  147 1   
   154  146  155 1   
   155  146  156 1   
   156  147  148 1   
   157  147  157 1   
   158  147  158 1   
   159  148  159 1   
   160  148  160 1   
   161  148  161 1   
   162  162  163 1   
   163  162  171 1   
   164  163  164 1   
   165  163  166 1   
   166  163  172 1   
   167  164  165 2   
   168  164  177 1   
   169  166  167 1   
   170  166  173 1   
   171  166  174 1   
   172  167  168 1   
   173  167  175 1   
   174  167  176 1   
   175  168  169 1   
   176  168  170 1   
   177  177  178 1   
   178  177  182 1   
   179  178  179 1   
   180  178  180 1   
   181  178  181 1   
   182  184  185 1   
   183  184  186 1   
   184  187  188 1   
   185  187  189 1   
   186  190  191 1   
   187  190  192 1   
@<TRIPOS>SUBSTRUCTURE
     1 MOL         1 TEMP              0 ****  ****    0 ROOT
