@<TRIPOS>MOLECULE
MOL
  178   175     1     0     0
SMALL
resp


@<TRIPOS>ATOM
      1 C1         11.4570   -6.5010   -1.0610 c3        1 MOL     -0.527061
      2 C2         10.7220   -5.2240   -1.5530 c         1 MOL      0.789496
      3 O1          9.7210   -5.3160   -2.2390 o         1 MOL     -0.578157
      4 H1         12.4610   -6.2370   -0.7300 hc        1 MOL      0.123690
      5 H2         10.9050   -6.9410   -0.2310 hc        1 MOL      0.123690
      6 H3         11.5230   -7.2200   -1.8780 hc        1 MOL      0.123690
      7 N1         11.1950   -4.0540   -1.1450 n         1 MOL     -0.714771
      8 C3         12.3150   -3.8560   -0.1820 c3        1 MOL      0.371625
      9 C4         13.2600   -2.7060   -0.5370 c         1 MOL      0.467919
     10 O2         14.4070   -2.7510   -0.2680 o         1 MOL     -0.564166
     11 C5         11.7880   -3.4340    1.3080 c3        1 MOL     -0.128179
     12 C6         10.5730   -2.4820    1.3250 c         1 MOL      0.648626
     13 O3         10.7070   -1.2900    0.9240 o         1 MOL     -0.738083
     14 O4          9.4620   -2.8890    1.8280 o         1 MOL     -0.738083
     15 H4         10.6580   -3.2480   -1.4200 hn        1 MOL      0.394205
     16 H5         13.0430   -4.6730   -0.1060 h1        1 MOL     -0.043709
     17 H6         12.6260   -3.0010    1.8530 hc        1 MOL      0.015539
     18 H7         11.4950   -4.3710    1.7880 hc        1 MOL      0.015539
     19 N2         12.7600   -1.6720   -1.2210 n         1 MOL     -0.388512
     20 C7         13.3480   -0.3390   -1.5010 c3        1 MOL      0.357086
     21 C8         12.2990    0.6710   -1.8860 c         1 MOL      0.323412
     22 O5         12.4600    1.4640   -2.8730 o         1 MOL     -0.516827
     23 C9         14.5310   -0.4530   -2.4150 c3        1 MOL     -0.305112
     24 H8         11.8130   -1.7320   -1.5820 hn        1 MOL      0.200822
     25 H9         13.7610   -0.0120   -0.5480 h1        1 MOL      0.006101
     26 H10        14.8970    0.5390   -2.6710 hc        1 MOL      0.069975
     27 H11        15.3330   -1.0910   -2.0420 hc        1 MOL      0.069975
     28 H12        14.3140   -0.8930   -3.3840 hc        1 MOL      0.069975
     29 N3         11.1170    0.6080   -1.2560 n         1 MOL     -0.355214
     30 C10         9.8920    1.2780   -1.7320 c3        1 MOL      0.358550
     31 C11         9.0220    1.7780   -0.6320 c         1 MOL      0.200956
     32 O6          9.2290    1.4020    0.5550 o         1 MOL     -0.483214
     33 C12         9.0350    0.3440   -2.5560 c3        1 MOL     -0.300637
     34 C13         9.0070   -1.0840   -1.9230 c         1 MOL      0.886984
     35 O7          9.6270   -1.9540   -2.4900 o         1 MOL     -0.729566
     36 O8          8.4140   -1.2670   -0.8510 o         1 MOL     -0.729566
     37 H13        11.0030    0.0650   -0.4140 hn        1 MOL      0.232025
     38 H14        10.1330    2.1710   -2.2970 h1        1 MOL     -0.023424
     39 H15         9.4600    0.2550   -3.5560 hc        1 MOL      0.047056
     40 H16         8.0080    0.6880   -2.6100 hc        1 MOL      0.047056
     41 N4          8.1120    2.7130   -0.8500 n         1 MOL     -0.152103
     42 C14         7.2570    3.3150    0.1260 c3        1 MOL     -0.341115
     43 C15         6.2250    2.2690    0.7550 c         1 MOL      0.514210
     44 O9          6.4030    1.0260    0.6430 o         1 MOL     -0.456788
     45 H17         7.9550    3.1680   -1.7400 hn        1 MOL      0.260927
     46 H18         6.6010    4.0920   -0.2620 h1        1 MOL      0.149664
     47 H19         7.8130    3.7250    0.9690 h1        1 MOL      0.149664
     48 N5          5.0980    2.7820    1.3100 n         1 MOL     -0.482357
     49 C16         4.1480    1.9770    2.1720 c3        1 MOL      0.136503
     50 C17         2.7000    2.2220    1.9520 c         1 MOL      0.561593
     51 O10         1.8810    2.1760    2.8690 o         1 MOL     -0.525492
     52 C18         4.5920    2.1730    3.6380 c3        1 MOL     -0.239175
     53 C19         6.0270    1.9400    3.9320 c         1 MOL      0.695571
     54 N6          6.7510    2.8070    4.5890 n         1 MOL     -0.717906
     55 O11         6.5950    0.9650    3.4680 o         1 MOL     -0.713785
     56 H20         4.9040    3.7610    1.1660 hn        1 MOL      0.270300
     57 H21         4.3230    0.9130    1.9810 h1        1 MOL      0.082102
     58 H22         3.9120    1.5730    4.2580 hc        1 MOL      0.074536
     59 H23         4.2530    3.1620    3.9320 hc        1 MOL      0.074536
     60 H24         6.2840    3.5860    5.0300 hn        1 MOL      0.346553
     61 H25         7.7180    2.5370    4.7280 hn        1 MOL      0.346553
     62 N7          2.3470    2.6560    0.7480 n         1 MOL     -0.399255
     63 C20         1.0500    3.2480    0.4160 c3        1 MOL     -0.196990
     64 C21         0.6480    3.2280   -1.0260 c         1 MOL      0.691981
     65 O12         1.2790    2.7220   -1.9130 o         1 MOL     -0.550619
     66 H26         2.9220    2.2930   -0.0040 hn        1 MOL      0.249002
     67 H27         0.8940    4.2150    0.8890 h1        1 MOL      0.163719
     68 H28         0.2900    2.5570    0.7880 h1        1 MOL      0.163719
     69 N8         -0.4510    3.9480   -1.3210 n         1 MOL     -0.567865
     70 C22        -1.4650    4.6470   -0.4270 c3        1 MOL     -0.052716
     71 C23        -2.9600    4.1950   -0.3890 c         1 MOL      0.668011
     72 O13        -3.6810    4.7700    0.3630 o         1 MOL     -0.587567
     73 C24        -1.3710    6.2000   -0.6580 c3        1 MOL      0.387289
     74 C25         0.0120    6.6540   -0.2450 c3        1 MOL     -0.373132
     75 O14        -1.4060    6.3610   -2.0480 oh        1 MOL     -0.591663
     76 H29        -0.6160    3.9800   -2.3170 hn        1 MOL      0.310817
     77 H30        -1.1540    4.4590    0.6010 h1        1 MOL      0.034830
     78 H31        -2.2160    6.7360   -0.2140 h1        1 MOL      0.029987
     79 H32        -0.6660    6.9020   -2.3510 ho        1 MOL      0.382613
     80 H33         0.0370    7.7390   -0.3010 hc        1 MOL      0.076918
     81 H34         0.2630    6.3320    0.7680 hc        1 MOL      0.076918
     82 H35         0.8160    6.2980   -0.8950 hc        1 MOL      0.076918
     83 N9         -3.2930    3.2420   -1.2070 n         1 MOL     -0.439628
     84 C26        -4.6700    2.8300   -1.4210 c3        1 MOL      0.051467
     85 C27        -4.6900    1.2740   -1.2690 c         1 MOL      0.376986
     86 O15        -3.8300    0.6440   -1.8570 o         1 MOL     -0.517858
     87 C28        -5.1280    3.2160   -2.8520 c3        1 MOL      0.223337
     88 C29        -4.8520    4.6940   -3.1760 c3        1 MOL     -0.032656
     89 C30        -6.6160    2.8350   -3.0660 c3        1 MOL     -0.042348
     90 C31        -5.5400    5.7260   -2.2980 c3        1 MOL     -0.023248
     91 H36        -2.5700    2.6870   -1.6400 hn        1 MOL      0.271819
     92 H37        -5.3730    3.3210   -0.7530 h1        1 MOL      0.066908
     93 H38        -4.5470    2.6620   -3.5950 hc        1 MOL     -0.015984
     94 H39        -5.2040    4.8230   -4.1960 hc        1 MOL     -0.019190
     95 H40        -3.8080    4.9880   -3.1880 hc        1 MOL     -0.019190
     96 H41        -6.7050    3.1860   -4.0900 hc        1 MOL      0.003513
     97 H42        -6.9040    1.7920   -2.9960 hc        1 MOL      0.003513
     98 H43        -7.2530    3.4600   -2.4460 hc        1 MOL      0.003513
     99 H44        -5.2690    5.6830   -1.2420 hc        1 MOL     -0.007792
    100 H45        -5.2660    6.7230   -2.6480 hc        1 MOL     -0.007792
    101 H46        -6.6270    5.6210   -2.3700 hc        1 MOL     -0.007792
    102 N10        -5.5400    0.7240   -0.4610 n         1 MOL     -0.242972
    103 C32        -6.6530    1.2850    0.3330 c3        1 MOL     -0.034788
    104 C33        -7.8000    0.3020    0.7190 c         1 MOL      0.402676
    105 O16        -7.5530   -0.9130    0.9090 o         1 MOL     -0.406701
    106 C34        -6.0530    1.7860    1.6710 c3        1 MOL     -0.184120
    107 C35        -5.2960    0.7200    2.4040 c         1 MOL      0.656575
    108 O17        -5.8970   -0.0050    3.2540 o         1 MOL     -0.678886
    109 O18        -4.1120    0.4290    2.1530 o         1 MOL     -0.678886
    110 H47        -5.4790   -0.2780   -0.3970 hn        1 MOL      0.316414
    111 H48        -7.0280    2.1370   -0.2260 h1        1 MOL      0.052097
    112 H49        -6.8540    2.0840    2.3410 hc        1 MOL      0.030017
    113 H50        -5.3450    2.6110    1.6320 hc        1 MOL      0.030017
    114 N11        -9.0650    0.7440    0.7770 n         1 MOL     -0.387729
    115 C36       -10.2490   -0.0450    0.9220 c3        1 MOL      0.254137
    116 C37       -10.9530   -0.4000   -0.3940 c         1 MOL      0.114889
    117 O19       -10.9090    0.4240   -1.3170 o         1 MOL     -0.503291
    118 C38       -11.3030    0.7500    1.7160 c3        1 MOL     -0.102843
    119 C39       -12.5600    0.1320    2.2350 ca        1 MOL      0.106827
    120 C40       -13.6980    0.2040    1.3780 ca        1 MOL     -0.228152
    121 C41       -12.6720   -0.5680    3.4250 ca        1 MOL     -0.228152
    122 C42       -14.8910   -0.4950    1.8330 ca        1 MOL     -0.018522
    123 C43       -13.8350   -1.2710    3.7900 ca        1 MOL     -0.018522
    124 C44       -14.9960   -1.2100    3.0540 ca        1 MOL     -0.232872
    125 H51        -9.1530    1.7430    0.6880 hn        1 MOL      0.270781
    126 H52       -10.0540   -0.9420    1.5100 h1        1 MOL      0.029818
    127 H53       -11.5000    1.6900    1.2050 hc        1 MOL      0.039747
    128 H54       -10.7810    1.1640    2.5880 hc        1 MOL      0.039747
    129 H55       -13.6870    0.8560    0.5210 ha        1 MOL      0.140323
    130 H56       -11.8420   -0.6690    4.1090 ha        1 MOL      0.140323
    131 H57       -15.7760   -0.4410    1.2310 ha        1 MOL      0.076303
    132 H58       -13.8920   -1.7870    4.7390 ha        1 MOL      0.076303
    133 H59       -15.7800   -1.8800    3.3660 ha        1 MOL      0.136386
    134 N12       -11.5150   -1.5820   -0.5610 n         1 MOL      0.288091
    135 C45       -11.3900   -2.6970    0.3800 c3        1 MOL     -0.016016
    136 C46        -9.9490   -3.3690    0.2760 c         1 MOL      0.595194
    137 O20        -9.3670   -3.6870    1.2520 o         1 MOL     -0.603019
    138 C47       -12.4770   -3.6340   -0.0140 c3        1 MOL     -0.087800
    139 C48       -12.7580   -3.4180   -1.5010 c3        1 MOL     -0.053107
    140 C49       -12.3450   -1.9350   -1.6710 c3        1 MOL     -0.092653
    141 H60       -11.5450   -2.3900    1.4070 h1        1 MOL      0.039118
    142 H61       -12.2160   -4.6780    0.1660 hc        1 MOL      0.021026
    143 H62       -13.3660   -3.3630    0.5450 hc        1 MOL      0.021026
    144 H63       -12.0430   -4.0840   -1.9980 hc        1 MOL      0.029857
    145 H64       -13.7810   -3.6410   -1.8080 hc        1 MOL      0.029857
    146 H65       -11.9240   -1.6970   -2.6500 h1        1 MOL      0.036616
    147 H66       -13.2340   -1.3180   -1.4790 h1        1 MOL      0.036616
    148 N13        -9.3680   -3.3670   -0.9100 n         1 MOL     -0.471880
    149 C50        -7.9150   -3.7470   -0.9610 c3        1 MOL      0.417988
    150 C51        -7.6920   -5.2680   -0.7880 c         1 MOL      0.257303
    151 O21        -8.0680   -6.0910   -1.6790 o         1 MOL     -0.572812
    152 C52        -7.2490   -3.2720   -2.2960 c3        1 MOL     -0.160875
    153 C53        -7.0930   -1.6940   -2.4410 c3        1 MOL     -0.006012
    154 C54        -7.0310   -1.3660   -3.9230 c         1 MOL      0.661138
    155 O22        -8.0760   -0.9600   -4.4710 o         1 MOL     -0.702101
    156 O23        -5.8870   -1.4790   -4.5150 o         1 MOL     -0.702101
    157 H67        -9.7990   -2.9840   -1.7340 hn        1 MOL      0.273719
    158 H68        -7.4160   -3.1200   -0.2220 h1        1 MOL      0.004096
    159 H69        -7.8410   -3.6590   -3.1230 hc        1 MOL      0.033372
    160 H70        -6.2370   -3.6620   -2.3450 hc        1 MOL      0.033372
    161 H71        -6.1700   -1.4730   -1.8930 hc        1 MOL     -0.014325
    162 H72        -7.9690   -1.2050   -2.0340 hc        1 MOL     -0.014325
    163 N14        -7.2380   -5.8050    0.3360 n         1 MOL     -0.196860
    164 C55        -6.6820   -5.1640    1.5470 c3        1 MOL     -0.277133
    165 H73        -5.7120   -4.7270    1.3130 h1        1 MOL      0.115813
    166 H74        -7.3600   -4.3810    1.8890 h1        1 MOL      0.115813
    167 H75        -6.5640   -5.9100    2.3330 h1        1 MOL      0.115813
    168 H76        -7.3000   -6.8080    0.3980 hn        1 MOL      0.241289
    169 Ca1         8.1550   -0.6510    1.7830 Ca        1 MOL      1.716430
    170 O24         5.6510   -1.7000    1.2700 oh        1 MOL     -0.772235
    171 H77         5.2120   -2.0310    2.0500 ho        1 MOL      0.377172
    172 H78         4.9460   -1.3980    0.7010 ho        1 MOL      0.377172
    173 O25         9.7500    0.1840    3.7380 oh        1 MOL     -0.772235
    174 H79        10.7010    0.2530    3.7130 ho        1 MOL      0.377172
    175 H80         9.5610   -0.2730    4.5530 ho        1 MOL      0.377172
    176 O26         7.3250   -1.9810    3.9700 oh        1 MOL     -0.772235
    177 H81         7.6760   -1.8980    4.8620 ho        1 MOL      0.377172
    178 H82         6.3930   -2.1660    4.0930 ho        1 MOL      0.377172
@<TRIPOS>BOND
     1    1    2 1   
     2    1    4 1   
     3    1    5 1   
     4    1    6 1   
     5    2    3 2   
     6    2    7 1   
     7    7    8 1   
     8    7   15 1   
     9    8    9 1   
    10    8   11 1   
    11    8   16 1   
    12    9   10 2   
    13    9   19 1   
    14   11   12 1   
    15   11   17 1   
    16   11   18 1   
    17   12   13 1   
    18   12   14 1   
    19   19   20 1   
    20   19   24 1   
    21   20   21 1   
    22   20   23 1   
    23   20   25 1   
    24   21   22 2   
    25   21   29 1   
    26   23   26 1   
    27   23   27 1   
    28   23   28 1   
    29   29   30 1   
    30   29   37 1   
    31   30   31 1   
    32   30   33 1   
    33   30   38 1   
    34   31   32 2   
    35   31   41 1   
    36   33   34 1   
    37   33   39 1   
    38   33   40 1   
    39   34   35 1   
    40   34   36 1   
    41   41   42 1   
    42   41   45 1   
    43   42   43 1   
    44   42   46 1   
    45   42   47 1   
    46   43   44 2   
    47   43   48 1   
    48   48   49 1   
    49   48   56 1   
    50   49   50 1   
    51   49   52 1   
    52   49   57 1   
    53   50   51 2   
    54   50   62 1   
    55   52   53 1   
    56   52   58 1   
    57   52   59 1   
    58   53   54 1   
    59   53   55 2   
    60   54   60 1   
    61   54   61 1   
    62   62   63 1   
    63   62   66 1   
    64   63   64 1   
    65   63   67 1   
    66   63   68 1   
    67   64   65 2   
    68   64   69 1   
    69   69   70 1   
    70   69   76 1   
    71   70   71 1   
    72   70   73 1   
    73   70   77 1   
    74   71   72 2   
    75   71   83 1   
    76   73   74 1   
    77   73   75 1   
    78   73   78 1   
    79   74   80 1   
    80   74   81 1   
    81   74   82 1   
    82   75   79 1   
    83   83   84 1   
    84   83   91 1   
    85   84   85 1   
    86   84   87 1   
    87   84   92 1   
    88   85   86 2   
    89   85  102 1   
    90   87   88 1   
    91   87   89 1   
    92   87   93 1   
    93   88   90 1   
    94   88   94 1   
    95   88   95 1   
    96   89   96 1   
    97   89   97 1   
    98   89   98 1   
    99   90   99 1   
   100   90  100 1   
   101   90  101 1   
   102  102  103 1   
   103  102  110 1   
   104  103  104 1   
   105  103  106 1   
   106  103  111 1   
   107  104  105 2   
   108  104  114 1   
   109  106  107 1   
   110  106  112 1   
   111  106  113 1   
   112  107  108 1   
   113  107  109 1   
   114  114  115 1   
   115  114  125 1   
   116  115  116 1   
   117  115  118 1   
   118  115  126 1   
   119  116  117 2   
   120  116  134 1   
   121  118  119 1   
   122  118  127 1   
   123  118  128 1   
   124  119  120 ar  
   125  119  121 ar  
   126  120  122 ar  
   127  120  129 1   
   128  121  123 ar  
   129  121  130 1   
   130  122  124 ar  
   131  122  131 1   
   132  123  124 ar  
   133  123  132 1   
   134  124  133 1   
   135  134  135 1   
   136  134  140 1   
   137  135  136 1   
   138  135  138 1   
   139  135  141 1   
   140  136  137 2   
   141  136  148 1   
   142  138  139 1   
   143  138  142 1   
   144  138  143 1   
   145  139  140 1   
   146  139  144 1   
   147  139  145 1   
   148  140  146 1   
   149  140  147 1   
   150  148  149 1   
   151  148  157 1   
   152  149  150 1   
   153  149  152 1   
   154  149  158 1   
   155  150  151 2   
   156  150  163 1   
   157  152  153 1   
   158  152  159 1   
   159  152  160 1   
   160  153  154 1   
   161  153  161 1   
   162  153  162 1   
   163  154  155 1   
   164  154  156 1   
   165  163  164 1   
   166  163  168 1   
   167  164  165 1   
   168  164  166 1   
   169  164  167 1   
   170  170  171 1   
   171  170  172 1   
   172  173  174 1   
   173  173  175 1   
   174  176  177 1   
   175  176  178 1   
@<TRIPOS>SUBSTRUCTURE
     1 MOL         1 TEMP              0 ****  ****    0 ROOT
