@<TRIPOS>MOLECULE
MOL
  184   179     1     0     0
SMALL
resp


@<TRIPOS>ATOM
      1 C1          6.2520   -5.6000    5.0770 c3        1 MOL     -0.375621
      2 C2          5.4860   -4.8370    4.0320 c         1 MOL      0.677730
      3 O1          4.3370   -4.5230    4.2040 o         1 MOL     -0.558688
      4 H1          7.0910   -4.9970    5.4260 hc        1 MOL      0.088641
      5 H2          5.5950   -5.8270    5.9160 hc        1 MOL      0.088641
      6 H3          6.6270   -6.5290    4.6470 hc        1 MOL      0.088641
      7 N1          6.0310   -4.5050    2.8360 n         1 MOL     -0.320544
      8 C3          7.2470   -5.1670    2.2750 c3        1 MOL     -0.108232
      9 C4          7.0470   -5.4510    0.7810 c         1 MOL      0.519137
     10 O2          5.9600   -5.5500    0.2080 o         1 MOL     -0.443955
     11 C5          8.3160   -4.0990    2.5380 c3        1 MOL     -0.087944
     12 C6          8.0250   -2.6970    2.1460 c         1 MOL      0.534729
     13 O3          8.2160   -2.3760    0.9610 o         1 MOL     -0.616424
     14 O4          7.6500   -1.8310    2.9980 o         1 MOL     -0.616424
     15 H4          5.4290   -4.1970    2.0810 hn        1 MOL      0.236758
     16 H5          7.5790   -6.0630    2.7960 h1        1 MOL      0.096443
     17 H6          9.2330   -4.3990    2.0210 hc        1 MOL      0.003299
     18 H7          8.6060   -4.0920    3.5930 hc        1 MOL      0.003299
     19 N2          8.2290   -5.5290    0.0700 n         1 MOL     -0.582353
     20 C7          8.2860   -5.7090   -1.4060 c3        1 MOL      0.372848
     21 C8          7.5880   -4.5840   -2.2200 c         1 MOL      0.429716
     22 O5          7.4480   -4.7270   -3.4340 o         1 MOL     -0.565081
     23 C9          7.9290   -7.0980   -1.8360 c3        1 MOL     -0.419598
     24 H8          9.0940   -5.3440    0.5560 hn        1 MOL      0.295012
     25 H9          9.3100   -5.5340   -1.7520 h1        1 MOL     -0.023457
     26 H10         8.5120   -7.8880   -1.3610 hc        1 MOL      0.108729
     27 H11         6.8990   -7.2930   -1.5310 hc        1 MOL      0.108729
     28 H12         7.9500   -7.1210   -2.9340 hc        1 MOL      0.108729
     29 N3          7.1660   -3.4790   -1.5940 n         1 MOL     -0.243143
     30 C10         6.3440   -2.5070   -2.3380 c3        1 MOL      0.354974
     31 C11         7.0270   -1.1510   -2.5460 c         1 MOL      0.166241
     32 O6          8.0440   -0.7970   -1.8640 o         1 MOL     -0.461256
     33 C12         4.9890   -2.3040   -1.6170 c3        1 MOL     -0.205922
     34 C13         5.1420   -2.1110   -0.0740 c         1 MOL      0.625669
     35 O7          5.8090   -1.1900    0.3550 o         1 MOL     -0.587317
     36 O8          4.5480   -2.9630    0.6590 o         1 MOL     -0.587317
     37 H13         7.4100   -3.2490   -0.6420 hn        1 MOL      0.004594
     38 H14         6.1400   -2.8360   -3.3660 h1        1 MOL     -0.002096
     39 H15         4.3010   -3.1220   -1.8610 hc        1 MOL      0.045658
     40 H16         4.5280   -1.4400   -2.0930 hc        1 MOL      0.045658
     41 N4          6.5870   -0.3780   -3.4600 n         1 MOL     -0.234335
     42 C14         6.6860    1.0620   -3.4390 c3        1 MOL     -0.236016
     43 C15         6.2630    1.8360   -2.1770 c         1 MOL      0.857123
     44 O9          6.1050    1.2970   -1.0640 o         1 MOL     -0.621917
     45 H17         5.8020   -0.7630   -3.9740 hn        1 MOL      0.270599
     46 H18         6.1580    1.4620   -4.3080 h1        1 MOL      0.115457
     47 H19         7.7450    1.2820   -3.6080 h1        1 MOL      0.115457
     48 N5          6.0270    3.1190   -2.3010 n         1 MOL     -0.857637
     49 C16         5.5520    4.0470   -1.2370 c3        1 MOL      0.598036
     50 C17         4.0180    4.2650   -1.0380 c         1 MOL      0.449637
     51 O10         3.2240    3.8380   -1.9170 o         1 MOL     -0.459211
     52 C18         6.2620    5.3950   -1.3790 c3        1 MOL     -0.466146
     53 C19         7.7810    5.3450   -1.4770 c         1 MOL      0.881651
     54 N6          8.3940    6.0720   -2.3410 n         1 MOL     -0.855894
     55 O11         8.3770    4.5150   -0.8040 o         1 MOL     -0.685467
     56 H20         6.2400    3.5330   -3.1990 hn        1 MOL      0.351032
     57 H21         5.8740    3.6730   -0.2640 h1        1 MOL     -0.067264
     58 H22         6.1000    5.8980   -0.4230 hc        1 MOL      0.098749
     59 H23         5.9230    5.9160   -2.2740 hc        1 MOL      0.098749
     60 H24         7.9610    6.7260   -2.9750 hn        1 MOL      0.388020
     61 H25         9.3930    5.9580   -2.3450 hn        1 MOL      0.388020
     62 N7          3.6340    4.9350    0.0480 n         1 MOL     -0.503232
     63 C20         2.2910    5.4060    0.4310 c3        1 MOL      0.024009
     64 C21         1.5290    6.3870   -0.5270 c         1 MOL      0.588835
     65 O12         2.1970    6.9290   -1.3830 o         1 MOL     -0.557248
     66 H26         4.3890    5.1920    0.6720 hn        1 MOL      0.310339
     67 H27         2.2560    5.8200    1.4410 h1        1 MOL      0.052249
     68 H28         1.6190    4.5460    0.5540 h1        1 MOL      0.052249
     69 N8          0.1700    6.5180   -0.4680 n         1 MOL     -0.441633
     70 C22        -0.6240    6.1170    0.6440 c3        1 MOL      0.011496
     71 C23        -1.8900    5.3140    0.1750 c         1 MOL      0.459801
     72 O13        -2.5330    5.6630   -0.8350 o         1 MOL     -0.526162
     73 C24        -0.9820    7.3070    1.5360 c3        1 MOL      0.473715
     74 C25         0.0990    7.6110    2.5230 c3        1 MOL     -0.302077
     75 O14        -1.2720    8.4070    0.6810 oh        1 MOL     -0.654388
     76 H29        -0.2310    7.2620   -1.0190 hn        1 MOL      0.294604
     77 H30        -0.0110    5.4510    1.2400 h1        1 MOL      0.021747
     78 H31        -1.9090    6.9920    2.0230 h1        1 MOL     -0.046343
     79 H32        -2.2010    8.3960    0.4080 ho        1 MOL      0.413363
     80 H33        -0.2730    8.3220    3.2520 hc        1 MOL      0.070738
     81 H34         0.4290    6.6930    3.0190 hc        1 MOL      0.070738
     82 H35         0.9930    7.9340    1.9840 hc        1 MOL      0.070738
     83 N9         -2.4800    4.4160    1.0480 n         1 MOL     -0.319814
     84 C26        -3.6770    3.5520    0.7160 c3        1 MOL     -0.007256
     85 C27        -4.5390    3.1710    1.9910 c         1 MOL      0.423523
     86 O15        -3.9890    3.2120    3.1260 o         1 MOL     -0.562330
     87 C28        -3.2310    2.1790    0.0370 c3        1 MOL      0.128949
     88 C29        -2.1570    1.2990    0.7820 c3        1 MOL     -0.081038
     89 C30        -2.7920    2.4980   -1.4730 c3        1 MOL     -0.263971
     90 C31        -0.6580    1.7810    0.6260 c3        1 MOL     -0.114908
     91 H36        -2.1360    4.2540    1.9860 hn        1 MOL      0.207815
     92 H37        -4.2130    4.0840   -0.0710 h1        1 MOL      0.086919
     93 H38        -4.0900    1.5130   -0.0730 hc        1 MOL     -0.025643
     94 H39        -2.2330    0.2890    0.3900 hc        1 MOL      0.049531
     95 H40        -2.4150    1.2440    1.8410 hc        1 MOL      0.049531
     96 H41        -1.9680    3.2040   -1.5090 hc        1 MOL      0.080871
     97 H42        -2.5170    1.5140   -1.8460 hc        1 MOL      0.080871
     98 H43        -3.6230    2.8530   -2.0950 hc        1 MOL      0.080871
     99 H44        -0.3540    1.8200   -0.4130 hc        1 MOL      0.030443
    100 H45        -0.4370    2.7790    1.0110 hc        1 MOL      0.030443
    101 H46        -0.0790    1.0740    1.2220 hc        1 MOL      0.030443
    102 N10        -5.7590    2.6910    1.9520 n         1 MOL     -0.316989
    103 C32        -6.6940    2.6270    0.7980 c3        1 MOL      0.066729
    104 C33        -7.5280    1.3340    0.8800 c         1 MOL      0.557952
    105 O16        -7.6570    0.7450    1.9210 o         1 MOL     -0.492088
    106 C34        -7.5560    3.9320    0.8150 c3        1 MOL     -0.136839
    107 C35        -8.2920    4.4110    2.0720 c         1 MOL      0.720987
    108 O17        -8.0480    4.0290    3.2510 o         1 MOL     -0.723318
    109 O18        -9.0750    5.3430    1.8970 o         1 MOL     -0.723318
    110 H47        -5.9170    2.2330    2.8420 hn        1 MOL      0.283721
    111 H48        -6.1560    2.5290   -0.1410 h1        1 MOL      0.059438
    112 H49        -8.2590    3.8760   -0.0160 hc        1 MOL     -0.004010
    113 H50        -6.9100    4.7540    0.4960 hc        1 MOL     -0.004010
    114 N11        -8.0370    0.9890   -0.3540 n         1 MOL     -0.707848
    115 C36        -9.0130   -0.0480   -0.4770 c3        1 MOL      0.597552
    116 C37        -8.8440   -0.9210   -1.7640 c         1 MOL      0.251285
    117 O19        -8.3240   -0.4070   -2.7840 o         1 MOL     -0.479729
    118 C38       -10.4040    0.5940   -0.4750 c3        1 MOL     -0.110201
    119 C39       -11.6270   -0.3710   -0.3190 ca        1 MOL      0.139139
    120 C40       -12.5870   -0.5920   -1.3770 ca        1 MOL     -0.200342
    121 C41       -11.8680   -0.9660    0.8810 ca        1 MOL     -0.200342
    122 C42       -13.6900   -1.4540   -1.2380 ca        1 MOL     -0.090643
    123 C43       -12.9600   -1.8220    1.0480 ca        1 MOL     -0.090643
    124 C44       -13.8050   -2.1660   -0.0610 ca        1 MOL     -0.156542
    125 H51        -7.9660    1.6730   -1.0960 hn        1 MOL      0.336364
    126 H52        -8.9150   -0.7110    0.3830 h1        1 MOL     -0.027127
    127 H53       -10.6430    1.1200   -1.3970 hc        1 MOL      0.019919
    128 H54       -10.4740    1.2880    0.3600 hc        1 MOL      0.019919
    129 H55       -12.3680   -0.1350   -2.3340 ha        1 MOL      0.128599
    130 H56       -11.2430   -0.7180    1.7340 ha        1 MOL      0.128599
    131 H57       -14.3110   -1.7170   -2.0740 ha        1 MOL      0.101164
    132 H58       -13.0480   -2.3250    1.9990 ha        1 MOL      0.101164
    133 H59       -14.5960   -2.8680    0.1500 ha        1 MOL      0.101075
    134 N12        -9.3480   -2.2010   -1.7640 n         1 MOL     -0.078262
    135 C45        -9.6860   -3.0900   -0.5910 c3        1 MOL     -0.219996
    136 C46        -8.4880   -3.5510    0.2560 c         1 MOL      0.539940
    137 O20        -8.6010   -3.4080    1.4770 o         1 MOL     -0.529760
    138 C47       -10.4200   -4.2740   -1.2190 c3        1 MOL      0.038752
    139 C48        -9.6940   -4.4030   -2.6250 c3        1 MOL      0.046738
    140 C49        -9.4380   -2.9530   -3.0220 c3        1 MOL     -0.223505
    141 H60       -10.3860   -2.6150    0.0970 h1        1 MOL      0.127306
    142 H61       -10.4580   -5.1960   -0.6490 hc        1 MOL      0.018125
    143 H62       -11.4650   -4.0010   -1.2950 hc        1 MOL      0.018125
    144 H63        -8.7520   -4.9420   -2.5340 hc        1 MOL      0.004014
    145 H64       -10.3820   -5.0160   -3.2070 hc        1 MOL      0.004014
    146 H65        -8.4590   -3.0650   -3.4890 h1        1 MOL      0.100945
    147 H66       -10.0480   -2.4330   -3.7640 h1        1 MOL      0.100945
    148 N13        -7.3600   -3.8620   -0.4250 n         1 MOL     -0.481054
    149 C50        -6.0760   -4.2420    0.1280 c3        1 MOL      0.205199
    150 C51        -5.9790   -5.7840    0.3520 c         1 MOL      0.349060
    151 O21        -5.7800   -6.5720   -0.5900 o         1 MOL     -0.550636
    152 C52        -4.8900   -3.6810   -0.7150 c3        1 MOL     -0.015628
    153 C53        -5.2140   -2.3620   -1.4990 c3        1 MOL     -0.245589
    154 C54        -4.0860   -1.9320   -2.4220 c         1 MOL      0.797516
    155 O22        -3.3870   -2.8050   -2.9900 o         1 MOL     -0.716989
    156 O23        -3.7810   -0.7420   -2.5990 o         1 MOL     -0.716989
    157 H67        -7.4180   -3.6720   -1.4180 hn        1 MOL      0.363930
    158 H68        -5.9750   -3.7610    1.1050 h1        1 MOL      0.043420
    159 H69        -4.4560   -4.4450   -1.3650 hc        1 MOL      0.027002
    160 H70        -4.0710   -3.4980   -0.0180 hc        1 MOL      0.027002
    161 H71        -5.4090   -1.5630   -0.7930 hc        1 MOL      0.032435
    162 H72        -6.1340   -2.4370   -2.0770 hc        1 MOL      0.032435
    163 N14        -6.1390   -6.2900    1.5500 n         1 MOL     -0.277331
    164 C55        -6.3630   -5.6150    2.8730 c3        1 MOL     -0.147753
    165 H73        -5.4290   -5.1700    3.2160 h1        1 MOL      0.082568
    166 H74        -7.1160   -4.8340    2.7600 h1        1 MOL      0.082568
    167 H75        -6.7060   -6.3490    3.6030 h1        1 MOL      0.082568
    168 H76        -6.0630   -7.2960    1.5140 hn        1 MOL      0.247487
    169 Ca1         7.9370    0.1160    0.5950 Ca        1 MOL      1.755478
    170 O24        10.2240    1.4170   -1.0570 oh        1 MOL     -0.820198
    171 H77        11.0490    0.9520   -0.9390 ho        1 MOL      0.391136
    172 H78        10.4740    2.3180   -1.2060 ho        1 MOL      0.391136
    173 O25        10.6330   -1.4140   -0.1460 oh        1 MOL     -0.820198
    174 H79        11.4440   -1.8250    0.1360 ho        1 MOL      0.391136
    175 H80         9.9860   -2.1240   -0.1430 ho        1 MOL      0.391136
    176 O26         6.1510    1.2180    2.6840 oh        1 MOL     -0.820198
    177 H81         5.3210    1.7090    2.7330 ho        1 MOL      0.391136
    178 H82         6.7980    1.7940    3.0790 ho        1 MOL      0.391136
    179 O27         9.6100    0.3830    2.5880 oh        1 MOL     -0.820198
    180 H83         9.5240    1.0810    3.2320 ho        1 MOL      0.391136
    181 H84        10.2470   -0.2230    2.9790 ho        1 MOL      0.391136
    182 O28         8.4000    2.6720    1.2620 oh        1 MOL     -0.820198
    183 H85         8.7480    3.1500    0.5140 ho        1 MOL      0.391136
    184 H86         8.5890    3.2260    2.0150 ho        1 MOL      0.391136
@<TRIPOS>BOND
     1    1    2 1   
     2    1    4 1   
     3    1    5 1   
     4    1    6 1   
     5    2    3 2   
     6    2    7 1   
     7    7    8 1   
     8    7   15 1   
     9    8    9 1   
    10    8   11 1   
    11    8   16 1   
    12    9   10 2   
    13    9   19 1   
    14   11   12 1   
    15   11   17 1   
    16   11   18 1   
    17   12   13 1   
    18   12   14 1   
    19   19   20 1   
    20   19   24 1   
    21   20   21 1   
    22   20   23 1   
    23   20   25 1   
    24   21   22 2   
    25   21   29 1   
    26   23   26 1   
    27   23   27 1   
    28   23   28 1   
    29   29   30 1   
    30   29   37 1   
    31   30   31 1   
    32   30   33 1   
    33   30   38 1   
    34   31   32 2   
    35   31   41 1   
    36   33   34 1   
    37   33   39 1   
    38   33   40 1   
    39   34   35 1   
    40   34   36 1   
    41   41   42 1   
    42   41   45 1   
    43   42   43 1   
    44   42   46 1   
    45   42   47 1   
    46   43   44 2   
    47   43   48 1   
    48   48   49 1   
    49   48   56 1   
    50   49   50 1   
    51   49   52 1   
    52   49   57 1   
    53   50   51 2   
    54   50   62 1   
    55   52   53 1   
    56   52   58 1   
    57   52   59 1   
    58   53   54 1   
    59   53   55 2   
    60   54   60 1   
    61   54   61 1   
    62   62   63 1   
    63   62   66 1   
    64   63   64 1   
    65   63   67 1   
    66   63   68 1   
    67   64   65 2   
    68   64   69 1   
    69   69   70 1   
    70   69   76 1   
    71   70   71 1   
    72   70   73 1   
    73   70   77 1   
    74   71   72 2   
    75   71   83 1   
    76   73   74 1   
    77   73   75 1   
    78   73   78 1   
    79   74   80 1   
    80   74   81 1   
    81   74   82 1   
    82   75   79 1   
    83   83   84 1   
    84   83   91 1   
    85   84   85 1   
    86   84   87 1   
    87   84   92 1   
    88   85   86 2   
    89   85  102 1   
    90   87   88 1   
    91   87   89 1   
    92   87   93 1   
    93   88   90 1   
    94   88   94 1   
    95   88   95 1   
    96   89   96 1   
    97   89   97 1   
    98   89   98 1   
    99   90   99 1   
   100   90  100 1   
   101   90  101 1   
   102  102  103 1   
   103  102  110 1   
   104  103  104 1   
   105  103  106 1   
   106  103  111 1   
   107  104  105 2   
   108  104  114 1   
   109  106  107 1   
   110  106  112 1   
   111  106  113 1   
   112  107  108 1   
   113  107  109 1   
   114  114  115 1   
   115  114  125 1   
   116  115  116 1   
   117  115  118 1   
   118  115  126 1   
   119  116  117 2   
   120  116  134 1   
   121  118  119 1   
   122  118  127 1   
   123  118  128 1   
   124  119  120 ar  
   125  119  121 ar  
   126  120  122 ar  
   127  120  129 1   
   128  121  123 ar  
   129  121  130 1   
   130  122  124 ar  
   131  122  131 1   
   132  123  124 ar  
   133  123  132 1   
   134  124  133 1   
   135  134  135 1   
   136  134  140 1   
   137  135  136 1   
   138  135  138 1   
   139  135  141 1   
   140  136  137 2   
   141  136  148 1   
   142  138  139 1   
   143  138  142 1   
   144  138  143 1   
   145  139  140 1   
   146  139  144 1   
   147  139  145 1   
   148  140  146 1   
   149  140  147 1   
   150  148  149 1   
   151  148  157 1   
   152  149  150 1   
   153  149  152 1   
   154  149  158 1   
   155  150  151 2   
   156  150  163 1   
   157  152  153 1   
   158  152  159 1   
   159  152  160 1   
   160  153  154 1   
   161  153  161 1   
   162  153  162 1   
   163  154  155 1   
   164  154  156 1   
   165  163  164 1   
   166  163  168 1   
   167  164  165 1   
   168  164  166 1   
   169  164  167 1   
   170  170  171 1   
   171  170  172 1   
   172  173  174 1   
   173  173  175 1   
   174  176  177 1   
   175  176  178 1   
   176  179  180 1   
   177  179  181 1   
   178  182  183 1   
   179  182  184 1   
@<TRIPOS>SUBSTRUCTURE
     1 MOL         1 TEMP              0 ****  ****    0 ROOT
