@<TRIPOS>MOLECULE
MOL
  195   189     1     0     0
SMALL
resp


@<TRIPOS>ATOM
      1 C1          3.9790   -2.1290   -2.6520 c3        1 MOL     -0.216939
      2 C2          3.0240   -2.8670   -1.7070 c         1 MOL      0.616401
      3 O1          1.8910   -2.4190   -1.5610 o         1 MOL     -0.566993
      4 H1          3.4090   -1.4500   -3.2860 hc        1 MOL      0.047990
      5 H2          4.7010   -1.5590   -2.0680 hc        1 MOL      0.047990
      6 H3          4.5040   -2.8520   -3.2760 hc        1 MOL      0.047990
      7 N1          3.4250   -3.9900   -1.1280 n         1 MOL     -0.129527
      8 C3          2.6700   -5.0230   -0.3720 c3        1 MOL     -0.544209
      9 C4          1.1670   -5.1960   -0.7670 c         1 MOL      0.967364
     10 O2          0.2960   -5.0760    0.0880 o         1 MOL     -0.581498
     11 C5          2.8550   -4.6770    1.0990 c3        1 MOL      0.130738
     12 C6          4.2500   -4.5450    1.6000 c         1 MOL      0.462463
     13 O3          5.2250   -5.0080    0.9290 o         1 MOL     -0.666932
     14 O4          4.3630   -3.7830    2.6080 o         1 MOL     -0.666932
     15 H4          4.4090   -4.1830   -1.2430 hn        1 MOL      0.164178
     16 H5          3.1320   -6.0030   -0.5080 h1        1 MOL      0.122989
     17 H6          2.2880   -5.3460    1.7380 hc        1 MOL      0.061473
     18 H7          2.3640   -3.7140    1.2350 hc        1 MOL      0.061473
     19 N2          0.9040   -5.2600   -2.0670 n         1 MOL     -0.597356
     20 C7         -0.5540   -5.2180   -2.4600 c3        1 MOL     -0.580433
     21 C8         -1.3970   -6.3730   -1.8850 c         1 MOL      0.760536
     22 O5         -0.8790   -7.4410   -1.7000 o         1 MOL     -0.579840
     23 C9         -0.7100   -5.0020   -3.9630 c3        1 MOL      0.077002
     24 C10        -0.1910   -6.2740   -4.7280 c3        1 MOL      0.090508
     25 C11         0.0900   -3.7200   -4.3460 c3        1 MOL     -0.075004
     26 C12        -0.4440   -6.2280   -6.2550 c3        1 MOL     -0.281540
     27 H8          1.6440   -5.1340   -2.7420 hn        1 MOL      0.321311
     28 H9         -0.9030   -4.2650   -2.0560 h1        1 MOL      0.312793
     29 H10        -1.7400   -4.7470   -4.2130 hc        1 MOL      0.099225
     30 H11        -0.5490   -7.2380   -4.3740 hc        1 MOL      0.024870
     31 H12         0.8980   -6.2480   -4.6660 hc        1 MOL      0.024870
     32 H13        -0.2780   -2.9270   -3.6850 hc        1 MOL      0.020036
     33 H14         1.1690   -3.8910   -4.2560 hc        1 MOL      0.020036
     34 H15        -0.1470   -3.4700   -5.3780 hc        1 MOL      0.020036
     35 H16        -0.1560   -5.2840   -6.7120 hc        1 MOL      0.054966
     36 H17         0.1310   -7.0760   -6.6450 hc        1 MOL      0.054966
     37 H18        -1.5030   -6.3240   -6.4470 hc        1 MOL      0.054966
     38 N3         -2.6780   -6.3150   -1.4200 n         1 MOL     -0.547866
     39 C13        -3.4630   -5.2320   -0.9360 c3        1 MOL      0.036172
     40 C14        -4.2700   -5.8160    0.1980 c         1 MOL      0.661487
     41 O6         -4.7110   -6.9860    0.2630 o         1 MOL     -0.574884
     42 C15        -4.3520   -4.7420   -2.0880 c3        1 MOL     -0.157240
     43 C16        -5.3620   -3.5550   -1.7430 c         1 MOL      0.686820
     44 O7         -6.3980   -3.5450   -2.4650 o         1 MOL     -0.697824
     45 O8         -5.1550   -2.8070   -0.7290 o         1 MOL     -0.697824
     46 H19        -2.9720   -7.2170   -1.0890 hn        1 MOL      0.274544
     47 H20        -2.8810   -4.3840   -0.5710 h1        1 MOL      0.057322
     48 H21        -4.9300   -5.5840   -2.4770 hc        1 MOL      0.023186
     49 H22        -3.6690   -4.4270   -2.8830 hc        1 MOL      0.023186
     50 N4         -4.4820   -4.9270    1.2150 n         1 MOL     -0.420000
     51 C17        -5.5000   -5.2080    2.2720 c3        1 MOL     -0.009436
     52 C18        -5.9290   -4.0050    3.0580 c         1 MOL      0.547004
     53 O9         -5.9010   -4.0210    4.3200 o         1 MOL     -0.580150
     54 H23        -4.2820   -3.9410    1.1200 hn        1 MOL      0.278174
     55 H24        -5.0730   -5.8900    3.0050 h1        1 MOL      0.043493
     56 H25        -6.3520   -5.7050    1.8120 h1        1 MOL      0.043493
     57 N5         -6.2420   -2.8550    2.4260 n         1 MOL     -0.473171
     58 C19        -6.5360   -1.5500    3.0090 c3        1 MOL      0.199817
     59 C20        -7.3750   -0.7030    2.0410 c         1 MOL      0.390833
     60 O10        -8.2880   -0.1210    2.5290 o         1 MOL     -0.539334
     61 C21        -5.3460   -0.6920    3.4920 c3        1 MOL     -0.183815
     62 C22        -4.4050   -0.3520    2.3360 c         1 MOL      0.681393
     63 O11        -3.6230   -1.1950    1.8160 o         1 MOL     -0.672366
     64 O12        -4.4040    0.8490    2.0050 o         1 MOL     -0.672366
     65 H26        -6.0540   -2.9600    1.4410 hn        1 MOL      0.227345
     66 H27        -7.1720   -1.7910    3.8500 h1        1 MOL      0.031084
     67 H28        -4.8440   -1.2020    4.3060 hc        1 MOL      0.043304
     68 H29        -5.7730    0.2370    3.8750 hc        1 MOL      0.043304
     69 N6         -7.0940   -0.6860    0.7430 n         1 MOL     -0.232569
     70 C23        -7.7440    0.0690   -0.3510 c3        1 MOL     -0.096095
     71 C24        -7.5650    1.6140   -0.1570 c         1 MOL      0.523059
     72 O13        -8.1330    2.3530   -0.9770 o         1 MOL     -0.574337
     73 H30        -6.3350   -1.2950    0.4690 hn        1 MOL      0.237832
     74 H31        -8.8140   -0.1590   -0.3770 h1        1 MOL      0.099121
     75 H32        -7.4010   -0.2540   -1.3400 h1        1 MOL      0.099121
     76 N7         -6.8310    2.1160    0.8800 n         1 MOL     -0.244956
     77 C25        -6.5940    3.5660    1.0390 c3        1 MOL     -0.056187
     78 C26        -6.2830    4.2720   -0.2710 c         1 MOL      0.531066
     79 O14        -6.6030    5.4190   -0.3630 o         1 MOL     -0.517046
     80 C27        -7.8190    4.1750    1.8320 c3        1 MOL      0.156355
     81 C28        -7.7910    3.6500    3.2570 c3        1 MOL     -0.259353
     82 C29        -9.0870    3.4270    3.9330 c         1 MOL      0.597493
     83 N8         -9.6870    2.2490    3.7040 n         1 MOL     -0.704745
     84 O15        -9.6720    4.2480    4.6670 o         1 MOL     -0.601397
     85 H33        -6.2670    1.5060    1.4510 hn        1 MOL      0.120138
     86 H34        -5.7570    3.6480    1.7210 h1        1 MOL      0.103861
     87 H35        -8.7200    3.9270    1.2790 hc        1 MOL      0.003201
     88 H36        -7.7090    5.2600    1.7430 hc        1 MOL      0.003201
     89 H37        -7.1840    4.3200    3.8770 hc        1 MOL      0.072451
     90 H38        -7.3480    2.6530    3.2880 hc        1 MOL      0.072451
     91 H39        -9.2760    1.5080    3.1550 hn        1 MOL      0.320301
     92 H40       -10.4380    1.9600    4.3220 hn        1 MOL      0.320301
     93 N9         -5.6080    3.6210   -1.2740 n         1 MOL     -0.430088
     94 C30        -5.1430    4.2670   -2.5380 c3        1 MOL     -0.081172
     95 C31        -3.6340    3.9680   -2.8670 c         1 MOL      0.504605
     96 O16        -3.1050    4.3900   -3.9170 o         1 MOL     -0.561531
     97 C32        -6.0100    3.7650   -3.7340 c3        1 MOL      0.201239
     98 C33        -6.0970    2.1990   -3.8310 c3        1 MOL     -0.253352
     99 C34        -7.4310    4.2640   -3.7140 c3        1 MOL     -0.253352
    100 H41        -5.4920    2.6350   -1.1380 hn        1 MOL      0.310909
    101 H42        -5.2080    5.3560   -2.3970 h1        1 MOL      0.125832
    102 H43        -5.5590    4.1560   -4.6460 hc        1 MOL     -0.018638
    103 H44        -6.6740    1.9350   -4.7270 hc        1 MOL      0.062390
    104 H45        -5.1210    1.7790   -4.0730 hc        1 MOL      0.062390
    105 H46        -6.5350    1.8410   -2.8970 hc        1 MOL      0.062390
    106 H47        -7.9270    3.9950   -2.7800 hc        1 MOL      0.062390
    107 H48        -7.5770    5.3470   -3.7710 hc        1 MOL      0.062390
    108 H49        -8.0840    3.8450   -4.4710 hc        1 MOL      0.062390
    109 N10        -2.8500    3.0420   -2.1920 n         1 MOL     -0.512130
    110 C35        -1.4790    2.5360   -2.5640 c3        1 MOL      0.542515
    111 C36        -0.5770    2.7000   -1.2730 c         1 MOL      0.395777
    112 O17        -1.0950    3.0800   -0.2280 o         1 MOL     -0.473109
    113 C37        -1.6210    1.1020   -3.0780 c3        1 MOL     -0.200982
    114 C38        -0.3160    0.2140   -3.1040 c         1 MOL      0.592875
    115 N11        -0.2840   -0.8140   -2.2580 n         1 MOL     -0.759260
    116 O18         0.6050    0.6710   -3.7140 o         1 MOL     -0.576220
    117 H50        -3.3130    2.6820   -1.3600 hn        1 MOL      0.214394
    118 H51        -1.0560    3.1520   -3.3540 h1        1 MOL     -0.018807
    119 H52        -1.9240    1.1370   -4.1240 hc        1 MOL      0.041562
    120 H53        -2.3290    0.4750   -2.5290 hc        1 MOL      0.041562
    121 H54        -1.0530   -0.8640   -1.6110 hn        1 MOL      0.388492
    122 H55         0.5770   -1.3330   -2.2040 hn        1 MOL      0.388492
    123 N12         0.7850    2.4400   -1.3470 n         1 MOL     -0.676203
    124 C39         1.6210    3.0580   -0.2970 c3        1 MOL      0.521267
    125 C40         3.0280    3.6320   -0.7310 c         1 MOL      0.451934
    126 O19         3.4540    3.5150   -1.8890 o         1 MOL     -0.528206
    127 C41         1.8670    1.9860    0.7720 c3        1 MOL     -0.047994
    128 C42         2.1800    2.5930    2.1390 ca        1 MOL     -0.104931
    129 C43         3.5000    2.6140    2.6840 ca        1 MOL     -0.135336
    130 C44         1.1270    3.1920    2.9200 ca        1 MOL     -0.135336
    131 C45         3.7700    3.0680    3.9340 ca        1 MOL     -0.212777
    132 C46         1.4520    3.7390    4.2030 ca        1 MOL     -0.212777
    133 C47         2.7270    3.6100    4.7110 ca        1 MOL      0.288782
    134 O20         2.8320    3.9390    6.0600 oh        1 MOL     -0.500402
    135 H56         1.1730    2.2120   -2.2520 hn        1 MOL      0.295728
    136 H57         1.0560    3.8890    0.1070 h1        1 MOL     -0.028452
    137 H58         2.7470    1.4620    0.4030 hc        1 MOL      0.064677
    138 H59         1.0130    1.3180    0.8890 hc        1 MOL      0.064677
    139 H60         4.3000    2.1450    2.1270 ha        1 MOL      0.160943
    140 H61         0.1270    3.0940    2.5370 ha        1 MOL      0.160943
    141 H62         4.7780    2.9410    4.3200 ha        1 MOL      0.135117
    142 H63         0.6720    4.0440    4.8810 ha        1 MOL      0.135117
    143 H64         3.6480    3.5890    6.4520 ho        1 MOL      0.345455
    144 N13         3.7310    4.3300    0.1960 n         1 MOL     -0.672957
    145 C48         5.0430    4.9180   -0.1170 c3        1 MOL      0.249587
    146 C49         6.0650    4.2680    0.8000 c         1 MOL      0.422588
    147 O21         6.1780    4.5570    2.0350 o         1 MOL     -0.600350
    148 C50         5.0870    6.4610   -0.0360 c3        1 MOL      0.020901
    149 C51         4.1990    7.1550   -1.0850 c3        1 MOL     -0.168298
    150 C52         4.5090    8.6440   -1.1060 c         1 MOL      0.686367
    151 O22         5.4180    9.0510   -1.8900 o         1 MOL     -0.725462
    152 O23         3.8470    9.4000   -0.3430 o         1 MOL     -0.725462
    153 H65         3.4700    4.4330    1.1610 hn        1 MOL      0.367406
    154 H66         5.3700    4.7570   -1.1510 h1        1 MOL      0.045282
    155 H67         6.1170    6.7720   -0.2370 hc        1 MOL      0.019998
    156 H68         4.8700    6.8560    0.9450 hc        1 MOL      0.019998
    157 H69         3.1350    7.1310   -0.8500 hc        1 MOL      0.020866
    158 H70         4.4460    6.6840   -2.0370 hc        1 MOL      0.020866
    159 N14         6.9280    3.3590    0.3510 n         1 MOL     -0.423559
    160 C53         6.8390    2.6820   -0.9640 c3        1 MOL     -0.042708
    161 C54         7.5630    3.4990   -2.0710 c         1 MOL      0.556189
    162 O24         8.6250    4.0390   -1.8500 o         1 MOL     -0.563488
    163 C55         7.3490    1.2200   -0.8760 c3        1 MOL     -0.103699
    164 C56         6.2680    0.4030   -0.2210 c3        1 MOL      0.299587
    165 C57         6.5580   -0.9890    0.2790 c         1 MOL      0.609890
    166 O25         5.7200   -1.8830    0.3030 o         1 MOL     -0.759747
    167 O26         7.7330   -1.2980    0.6380 o         1 MOL     -0.759747
    168 H71         7.6560    3.0940    1.0080 hn        1 MOL      0.321598
    169 H72         5.8170    2.5510   -1.3410 h1        1 MOL      0.085584
    170 H73         8.2610    1.0980   -0.2910 hc        1 MOL      0.007013
    171 H74         7.5350    0.8520   -1.8940 hc        1 MOL      0.007013
    172 H75         5.3930    0.3770   -0.8740 hc        1 MOL     -0.085275
    173 H76         5.9270    0.8950    0.6940 hc        1 MOL     -0.085275
    174 N15         6.9930    3.4990   -3.2340 n         1 MOL     -0.254760
    175 C58         7.4320    4.2520   -4.4090 c3        1 MOL     -0.206347
    176 H77         6.5650    4.6870   -4.9070 h1        1 MOL      0.096882
    177 H78         8.1080    5.0490   -4.0990 h1        1 MOL      0.096882
    178 H79         7.9480    3.5840   -5.0980 h1        1 MOL      0.096882
    179 H80         6.1090    3.0230   -3.3090 hn        1 MOL      0.238313
    180 Ca1         7.1970   -3.4680    1.8600 Ca        1 MOL      1.741240
    181 O27         9.8180   -4.7070    1.7580 oh        1 MOL     -0.837435
    182 H81         9.7940   -5.4480    2.3630 ho        1 MOL      0.408828
    183 H82        10.7140   -4.3790    1.8120 ho        1 MOL      0.408828
    184 O28         5.9540   -1.5220    3.3720 oh        1 MOL     -0.837435
    185 H83         5.0760   -1.4680    3.0080 ho        1 MOL      0.408828
    186 H84         6.2130   -0.6160    3.5280 ho        1 MOL      0.408828
    187 O29         7.0830   -6.2790    2.0210 oh        1 MOL     -0.837435
    188 H85         6.6890   -6.9320    2.5950 ho        1 MOL      0.408828
    189 H86         6.3950   -6.0740    1.3890 ho        1 MOL      0.408828
    190 O30         6.9330   -4.3420    4.3390 oh        1 MOL     -0.837435
    191 H87         6.9340   -5.1740    4.8120 ho        1 MOL      0.408828
    192 H88         6.3190   -3.7910    4.8360 ho        1 MOL      0.408828
    193 O31         9.0100   -2.1880    3.5960 oh        1 MOL     -0.837435
    194 H89         9.3880   -1.3100    3.6400 ho        1 MOL      0.408828
    195 H90         9.0780   -2.5200    4.4970 ho        1 MOL      0.408828
@<TRIPOS>BOND
     1    1    2 1   
     2    1    4 1   
     3    1    5 1   
     4    1    6 1   
     5    2    3 2   
     6    2    7 1   
     7    7    8 1   
     8    7   15 1   
     9    8    9 1   
    10    8   11 1   
    11    8   16 1   
    12    9   10 2   
    13    9   19 1   
    14   11   12 1   
    15   11   17 1   
    16   11   18 1   
    17   12   13 1   
    18   12   14 1   
    19   19   20 1   
    20   19   27 1   
    21   20   21 1   
    22   20   23 1   
    23   20   28 1   
    24   21   22 2   
    25   21   38 1   
    26   23   24 1   
    27   23   25 1   
    28   23   29 1   
    29   24   26 1   
    30   24   30 1   
    31   24   31 1   
    32   25   32 1   
    33   25   33 1   
    34   25   34 1   
    35   26   35 1   
    36   26   36 1   
    37   26   37 1   
    38   38   39 1   
    39   38   46 1   
    40   39   40 1   
    41   39   42 1   
    42   39   47 1   
    43   40   41 2   
    44   40   50 1   
    45   42   43 1   
    46   42   48 1   
    47   42   49 1   
    48   43   44 1   
    49   43   45 1   
    50   50   51 1   
    51   50   54 1   
    52   51   52 1   
    53   51   55 1   
    54   51   56 1   
    55   52   53 2   
    56   52   57 1   
    57   57   58 1   
    58   57   65 1   
    59   58   59 1   
    60   58   61 1   
    61   58   66 1   
    62   59   60 2   
    63   59   69 1   
    64   61   62 1   
    65   61   67 1   
    66   61   68 1   
    67   62   63 1   
    68   62   64 1   
    69   69   70 1   
    70   69   73 1   
    71   70   71 1   
    72   70   74 1   
    73   70   75 1   
    74   71   72 2   
    75   71   76 1   
    76   76   77 1   
    77   76   85 1   
    78   77   78 1   
    79   77   80 1   
    80   77   86 1   
    81   78   79 2   
    82   78   93 1   
    83   80   81 1   
    84   80   87 1   
    85   80   88 1   
    86   81   82 1   
    87   81   89 1   
    88   81   90 1   
    89   82   83 1   
    90   82   84 2   
    91   83   91 1   
    92   83   92 1   
    93   93   94 1   
    94   93  100 1   
    95   94   95 1   
    96   94   97 1   
    97   94  101 1   
    98   95   96 2   
    99   95  109 1   
   100   97   98 1   
   101   97   99 1   
   102   97  102 1   
   103   98  103 1   
   104   98  104 1   
   105   98  105 1   
   106   99  106 1   
   107   99  107 1   
   108   99  108 1   
   109  109  110 1   
   110  109  117 1   
   111  110  111 1   
   112  110  113 1   
   113  110  118 1   
   114  111  112 2   
   115  111  123 1   
   116  113  114 1   
   117  113  119 1   
   118  113  120 1   
   119  114  115 1   
   120  114  116 2   
   121  115  121 1   
   122  115  122 1   
   123  123  124 1   
   124  123  135 1   
   125  124  125 1   
   126  124  127 1   
   127  124  136 1   
   128  125  126 2   
   129  125  144 1   
   130  127  128 1   
   131  127  137 1   
   132  127  138 1   
   133  128  129 ar  
   134  128  130 ar  
   135  129  131 ar  
   136  129  139 1   
   137  130  132 ar  
   138  130  140 1   
   139  131  133 ar  
   140  131  141 1   
   141  132  133 ar  
   142  132  142 1   
   143  133  134 1   
   144  134  143 1   
   145  144  145 1   
   146  144  153 1   
   147  145  146 1   
   148  145  148 1   
   149  145  154 1   
   150  146  147 2   
   151  146  159 1   
   152  148  149 1   
   153  148  155 1   
   154  148  156 1   
   155  149  150 1   
   156  149  157 1   
   157  149  158 1   
   158  150  151 1   
   159  150  152 1   
   160  159  160 1   
   161  159  168 1   
   162  160  161 1   
   163  160  163 1   
   164  160  169 1   
   165  161  162 2   
   166  161  174 1   
   167  163  164 1   
   168  163  170 1   
   169  163  171 1   
   170  164  165 1   
   171  164  172 1   
   172  164  173 1   
   173  165  166 1   
   174  165  167 1   
   175  174  175 1   
   176  174  179 1   
   177  175  176 1   
   178  175  177 1   
   179  175  178 1   
   180  181  182 1   
   181  181  183 1   
   182  184  185 1   
   183  184  186 1   
   184  187  188 1   
   185  187  189 1   
   186  190  191 1   
   187  190  192 1   
   188  193  194 1   
   189  193  195 1   
@<TRIPOS>SUBSTRUCTURE
     1 MOL         1 TEMP              0 ****  ****    0 ROOT
