@<TRIPOS>MOLECULE
MOL
  189   185     1     0     0
SMALL
resp


@<TRIPOS>ATOM
      1 C1          4.3820    4.8360   -2.7650 c3        1 MOL     -0.336855
      2 C2          5.0170    3.8410   -1.7950 c         1 MOL      0.741833
      3 O1          4.4130    3.3530   -0.8560 o         1 MOL     -0.530295
      4 H1          3.5010    5.2810   -2.3030 hc        1 MOL      0.085106
      5 H2          5.1000    5.6190   -3.0060 hc        1 MOL      0.085106
      6 H3          4.0900    4.3180   -3.6780 hc        1 MOL      0.085106
      7 N1          6.2310    3.4310   -2.2150 n         1 MOL     -0.738581
      8 C3          6.9230    2.2120   -1.7600 c3        1 MOL      0.362177
      9 C4          6.0490    0.9230   -1.6710 c         1 MOL      0.269820
     10 O2          5.5920    0.5700   -0.5650 o         1 MOL     -0.610062
     11 C5          7.9530    2.3640   -0.6010 c3        1 MOL     -0.179830
     12 C6          7.3650    3.1590    0.5380 c         1 MOL      0.753625
     13 O3          6.8250    2.3670    1.3770 o         1 MOL     -0.713583
     14 O4          7.6570    4.3750    0.7580 o         1 MOL     -0.713583
     15 H4          6.7150    3.8960   -2.9790 hn        1 MOL      0.346275
     16 H5          7.5470    1.9400   -2.6140 h1        1 MOL     -0.027539
     17 H6          8.8730    2.7810   -0.9980 hc        1 MOL      0.020639
     18 H7          8.1970    1.3580   -0.2510 hc        1 MOL      0.020639
     19 N2          5.7230    0.3040   -2.8060 n         1 MOL     -0.442458
     20 C7          4.9990   -0.9830   -3.0270 c3        1 MOL      0.127514
     21 C8          5.7400   -2.2390   -2.4260 c         1 MOL      0.409089
     22 O5          5.9960   -3.1950   -3.1060 o         1 MOL     -0.546734
     23 C9          3.4980   -0.8690   -2.6200 c3        1 MOL      0.142461
     24 C10         2.6660   -2.0110   -3.2670 c3        1 MOL      0.087012
     25 C11         2.7550    0.5130   -2.8590 c3        1 MOL     -0.299354
     26 C12         2.8370   -2.1600   -4.7290 c3        1 MOL     -0.246589
     27 H8          6.0200    0.7650   -3.6500 hn        1 MOL      0.288830
     28 H9          5.0820   -1.2020   -4.0960 h1        1 MOL      0.027907
     29 H10         3.4130   -1.0210   -1.5420 hc        1 MOL     -0.052620
     30 H11         1.6180   -1.8840   -3.0010 hc        1 MOL      0.025140
     31 H12         2.9390   -2.9360   -2.7580 hc        1 MOL      0.025140
     32 H13         3.1980    1.2990   -2.2530 hc        1 MOL      0.065842
     33 H14         2.8090    0.6590   -3.9410 hc        1 MOL      0.065842
     34 H15         1.7220    0.4490   -2.5030 hc        1 MOL      0.065842
     35 H16         2.5220   -1.3410   -5.3660 hc        1 MOL      0.040207
     36 H17         3.8670   -2.4760   -4.9130 hc        1 MOL      0.040207
     37 H18         2.1970   -2.9730   -5.0730 hc        1 MOL      0.040207
     38 N3          6.1500   -2.1180   -1.1610 n         1 MOL     -0.252624
     39 C13         7.0910   -2.9640   -0.4590 c3        1 MOL      0.030229
     40 C14         6.6200   -4.4590   -0.2290 c         1 MOL      0.582593
     41 O6          7.4160   -5.3670   -0.3440 o         1 MOL     -0.527536
     42 C15         7.5020   -2.3080    0.8340 c3        1 MOL     -0.228546
     43 C16         8.5630   -3.0570    1.6350 c         1 MOL      0.644572
     44 O7          9.7770   -2.8290    1.4190 o         1 MOL     -0.695433
     45 O8          8.1690   -3.9710    2.4230 o         1 MOL     -0.695433
     46 H19         6.0310   -1.2300   -0.6780 hn        1 MOL      0.336058
     47 H20         7.9770   -3.0210   -1.0940 h1        1 MOL      0.040373
     48 H21         6.5820   -2.0210    1.3460 hc        1 MOL      0.077661
     49 H22         7.9590   -1.3320    0.6260 hc        1 MOL      0.077661
     50 N4          5.2830   -4.6590    0.0040 n         1 MOL     -0.596364
     51 C17         4.2900   -3.7780    0.5640 c3        1 MOL      0.251327
     52 C18         3.0520   -4.5570    1.0830 c         1 MOL      0.525773
     53 O9          2.8810   -5.7110    0.8350 o         1 MOL     -0.597595
     54 H23         5.0060   -5.6320    0.0140 hn        1 MOL      0.280733
     55 H24         3.8710   -3.0650   -0.1490 h1        1 MOL      0.031961
     56 H25         4.7030   -3.2170    1.3970 h1        1 MOL      0.031961
     57 N5          2.1040   -4.0000    1.8320 n         1 MOL     -0.373105
     58 C19         2.0070   -2.7130    2.4980 c3        1 MOL      0.029910
     59 C20         2.0850   -1.4770    1.6110 c         1 MOL      0.227739
     60 O10         3.2210   -1.0650    1.2840 o         1 MOL     -0.521907
     61 C21         3.0960   -2.6630    3.5790 c3        1 MOL     -0.216150
     62 C22         2.9650   -1.4780    4.5230 c         1 MOL      0.716032
     63 O11         1.8920   -0.7780    4.5700 o         1 MOL     -0.695756
     64 O12         3.9000   -1.3340    5.3010 o         1 MOL     -0.695756
     65 H26         1.4090   -4.6560    2.1470 hn        1 MOL      0.250522
     66 H27         1.0490   -2.7380    3.0230 h1        1 MOL      0.079830
     67 H28         4.0960   -2.5970    3.1510 hc        1 MOL      0.072037
     68 H29         3.2040   -3.6010    4.1270 hc        1 MOL      0.072037
     69 N6          1.0000   -0.9520    1.0680 n         1 MOL     -0.050684
     70 C23        -0.3440   -1.4940    0.9980 c3        1 MOL     -0.124378
     71 C24        -0.6710   -2.4710   -0.0580 c         1 MOL      0.446618
     72 O13         0.0910   -2.6600   -1.0150 o         1 MOL     -0.486663
     73 H30         1.2210   -0.1330    0.5200 hn        1 MOL      0.186725
     74 H31        -0.9470   -0.5980    0.8660 h1        1 MOL      0.059670
     75 H32        -0.5710   -1.9070    1.9770 h1        1 MOL      0.059670
     76 N7         -1.7970   -3.1910    0.0270 n         1 MOL     -0.357124
     77 C25        -2.3210   -4.1940   -0.8850 c3        1 MOL     -0.021049
     78 C26        -2.8330   -3.6270   -2.2190 c         1 MOL      0.386407
     79 O14        -2.9760   -4.3610   -3.1850 o         1 MOL     -0.497280
     80 C27        -3.4520   -4.9240   -0.1830 c3        1 MOL     -0.144528
     81 C28        -4.8250   -4.2570   -0.2450 c3        1 MOL     -0.172024
     82 C29        -5.6560   -4.6670    0.9640 c         1 MOL      0.555245
     83 N8         -6.1530   -5.9170    0.9570 n         1 MOL     -0.760513
     84 O15        -5.7480   -3.9400    1.9870 o         1 MOL     -0.466592
     85 H33        -2.4340   -2.9800    0.7760 hn        1 MOL      0.240962
     86 H34        -1.5250   -4.8660   -1.2170 h1        1 MOL      0.140562
     87 H35        -3.1920   -5.1340    0.8480 hc        1 MOL      0.075779
     88 H36        -3.5350   -5.9460   -0.5570 hc        1 MOL      0.075779
     89 H37        -5.1910   -4.5990   -1.2090 hc        1 MOL      0.098781
     90 H38        -4.7450   -3.1680   -0.2610 hc        1 MOL      0.098781
     91 H39        -6.0180   -6.5500    0.1840 hn        1 MOL      0.360707
     92 H40        -6.6870   -6.2160    1.7620 hn        1 MOL      0.360707
     93 N9         -3.0440   -2.2580   -2.3420 n         1 MOL     -0.120511
     94 C30        -3.5310   -1.5690   -3.5210 c3        1 MOL     -0.325461
     95 C31        -4.9470   -0.9990   -3.4120 c         1 MOL      0.626391
     96 O16        -5.4310   -0.6160   -4.4560 o         1 MOL     -0.579434
     97 C32        -2.5350   -0.5450   -4.1200 c3        1 MOL      0.221151
     98 C33        -1.1730   -1.2260   -4.3090 c3        1 MOL     -0.215266
     99 C34        -2.3790    0.6640   -3.2120 c3        1 MOL     -0.215266
    100 H41        -2.7580   -1.7080   -1.5420 hn        1 MOL      0.241624
    101 H42        -3.7320   -2.3100   -4.2940 h1        1 MOL      0.140231
    102 H43        -2.8810   -0.2010   -5.0930 hc        1 MOL      0.016836
    103 H44        -0.5540   -1.2860   -3.4140 hc        1 MOL      0.048630
    104 H45        -1.3100   -2.2840   -4.5440 hc        1 MOL      0.048630
    105 H46        -0.6040   -0.7330   -5.0950 hc        1 MOL      0.048630
    106 H47        -2.0970    1.5400   -3.7790 hc        1 MOL      0.048630
    107 H48        -3.3260    0.7640   -2.6700 hc        1 MOL      0.048630
    108 H49        -1.6220    0.5400   -2.4410 hc        1 MOL      0.048630
    109 N10        -5.5610   -0.9060   -2.2460 n         1 MOL     -0.303184
    110 C35        -6.8900   -0.3740   -2.0700 c3        1 MOL      0.021978
    111 C36        -6.9010    0.8460   -1.1760 c         1 MOL      0.563941
    112 O17        -7.7260    1.7020   -1.3180 o         1 MOL     -0.561526
    113 C37        -7.7500   -1.4970   -1.3880 c3        1 MOL     -0.300050
    114 C38        -8.0440   -2.7630   -2.1810 c         1 MOL      0.675966
    115 N11        -8.4160   -2.6950   -3.4130 n         1 MOL     -0.765234
    116 O18        -7.7990   -3.8240   -1.6810 o         1 MOL     -0.590816
    117 H50        -5.0260   -1.1920   -1.4380 hn        1 MOL      0.109532
    118 H51        -7.3870   -0.0450   -2.9850 h1        1 MOL      0.078369
    119 H52        -8.7400   -1.1220   -1.1140 hc        1 MOL      0.094813
    120 H53        -7.2670   -1.7700   -0.4600 hc        1 MOL      0.094813
    121 H54        -8.6380   -1.8020   -3.8210 hn        1 MOL      0.362651
    122 H55        -8.5910   -3.6000   -3.8390 hn        1 MOL      0.362651
    123 N12        -5.9510    0.8650   -0.2690 n         1 MOL     -0.342153
    124 C39        -5.8740    1.9410    0.8160 c3        1 MOL      0.032641
    125 C40        -4.5400    2.7670    0.8150 c         1 MOL      0.556754
    126 O19        -3.6300    2.2220    0.1520 o         1 MOL     -0.565067
    127 C41        -5.9980    1.3690    2.1840 c3        1 MOL     -0.152689
    128 C42        -7.2670    0.5870    2.5260 ca        1 MOL      0.019422
    129 C43        -8.4660    1.3280    2.8110 ca        1 MOL     -0.110742
    130 C44        -7.2150   -0.8170    2.6520 ca        1 MOL     -0.110742
    131 C45        -9.6460    0.6100    3.1710 ca        1 MOL     -0.243850
    132 C46        -8.3940   -1.5170    2.9730 ca        1 MOL     -0.243850
    133 C47        -9.6130   -0.7660    3.2670 ca        1 MOL      0.277966
    134 O20       -10.7280   -1.4760    3.7130 oh        1 MOL     -0.483498
    135 H56        -5.3970    0.0590   -0.0130 hn        1 MOL      0.316296
    136 H57        -6.7480    2.5500    0.6010 h1        1 MOL      0.043657
    137 H58        -5.9770    2.2210    2.8650 hc        1 MOL      0.083733
    138 H59        -5.0400    0.8530    2.2890 hc        1 MOL      0.083733
    139 H60        -8.5470    2.4030    2.7360 ha        1 MOL      0.100193
    140 H61        -6.3050   -1.3560    2.4060 ha        1 MOL      0.100193
    141 H62       -10.5710    1.1360    3.3270 ha        1 MOL      0.131476
    142 H63        -8.4250   -2.6020    2.9810 ha        1 MOL      0.131476
    143 H64       -11.4310   -0.9150    4.0510 ho        1 MOL      0.341285
    144 N13        -4.4510    3.9520    1.4390 n         1 MOL     -0.665032
    145 C48        -3.2660    4.7950    1.7730 c3        1 MOL      0.220732
    146 C49        -2.4180    5.3060    0.6000 c         1 MOL      0.661473
    147 O21        -2.2730    6.5390    0.6290 o         1 MOL     -0.616186
    148 C50        -2.5650    4.1890    2.9350 c3        1 MOL     -0.084921
    149 C51        -1.8020    2.8070    2.6450 c3        1 MOL     -0.182487
    150 C52        -1.1450    2.3880    3.9040 c         1 MOL      0.737297
    151 O22        -1.8360    2.0570    4.9040 o         1 MOL     -0.719885
    152 O23         0.1040    2.5060    3.9400 o         1 MOL     -0.719885
    153 H65        -5.3070    4.3170    1.8380 hn        1 MOL      0.349466
    154 H66        -3.6750    5.7220    2.1950 h1        1 MOL     -0.008634
    155 H67        -3.2920    4.0740    3.7420 hc        1 MOL      0.047171
    156 H68        -1.8210    4.9490    3.1440 hc        1 MOL      0.047171
    157 H69        -1.0490    2.9030    1.8630 hc        1 MOL      0.036326
    158 H70        -2.5120    2.0220    2.4400 hc        1 MOL      0.036326
    159 N14        -1.9700    4.5410   -0.3280 n         1 MOL     -0.630650
    160 C53        -0.7180    4.8030   -1.0770 c3        1 MOL     -0.077542
    161 C54        -0.8900    5.9090   -2.1290 c         1 MOL      0.488558
    162 O24         0.0140    6.3810   -2.8230 o         1 MOL     -0.548853
    163 C55        -0.2410    3.5350   -1.8330 c3        1 MOL     -0.192325
    164 C56        -0.0240    2.2920   -0.9510 c3        1 MOL      0.516436
    165 C57         1.2660    2.5130   -0.0240 c         1 MOL      0.416798
    166 O25         1.4280    3.5660    0.6500 o         1 MOL     -0.565075
    167 O26         1.9970    1.5070    0.1320 o         1 MOL     -0.565075
    168 H71        -2.2080    3.5570   -0.2750 hn        1 MOL      0.403186
    169 H72         0.0770    5.1880   -0.4350 h1        1 MOL      0.168308
    170 H73         0.7330    3.7420   -2.2770 hc        1 MOL      0.037878
    171 H74        -0.9750    3.2610   -2.5890 hc        1 MOL      0.037878
    172 H75         0.1350    1.4660   -1.6440 hc        1 MOL     -0.142704
    173 H76        -0.8950    2.2400   -0.2980 hc        1 MOL     -0.142704
    174 N15        -2.1650    6.2760   -2.3300 n         1 MOL     -0.195073
    175 C58        -2.6580    7.1240   -3.4480 c3        1 MOL     -0.184870
    176 H77        -3.4880    7.7370   -3.0990 h1        1 MOL      0.077695
    177 H78        -1.8530    7.7700   -3.7980 h1        1 MOL      0.077695
    178 H79        -2.9950    6.4880   -4.2670 h1        1 MOL      0.077695
    179 H80        -2.8420    5.9640   -1.6500 hn        1 MOL      0.218090
    180 Ca1         4.2320    1.7600    1.3600 Ca        1 MOL      1.834263
    181 O27         5.4010    0.3030    3.4930 oh        1 MOL     -1.026056
    182 H81         6.3150    0.1920    3.7660 ho        1 MOL      0.470927
    183 H82         4.8890    0.1790    4.2960 ho        1 MOL      0.470927
    184 O28         2.2740    1.2730    3.0830 oh        1 MOL     -1.026056
    185 H83         1.5170    1.8300    3.2800 ho        1 MOL      0.470927
    186 H84         2.1620    0.5060    3.6390 ho        1 MOL      0.470927
    187 O29         4.1590    4.2780    2.5340 oh        1 MOL     -1.026056
    188 H85         4.7330    4.9010    2.9780 ho        1 MOL      0.470927
    189 H86         3.2970    4.4350    2.8920 ho        1 MOL      0.470927
@<TRIPOS>BOND
     1    1    2 1   
     2    1    4 1   
     3    1    5 1   
     4    1    6 1   
     5    2    3 2   
     6    2    7 1   
     7    7    8 1   
     8    7   15 1   
     9    8    9 1   
    10    8   11 1   
    11    8   16 1   
    12    9   10 2   
    13    9   19 1   
    14   11   12 1   
    15   11   17 1   
    16   11   18 1   
    17   12   13 1   
    18   12   14 1   
    19   19   20 1   
    20   19   27 1   
    21   20   21 1   
    22   20   23 1   
    23   20   28 1   
    24   21   22 2   
    25   21   38 1   
    26   23   24 1   
    27   23   25 1   
    28   23   29 1   
    29   24   26 1   
    30   24   30 1   
    31   24   31 1   
    32   25   32 1   
    33   25   33 1   
    34   25   34 1   
    35   26   35 1   
    36   26   36 1   
    37   26   37 1   
    38   38   39 1   
    39   38   46 1   
    40   39   40 1   
    41   39   42 1   
    42   39   47 1   
    43   40   41 2   
    44   40   50 1   
    45   42   43 1   
    46   42   48 1   
    47   42   49 1   
    48   43   44 1   
    49   43   45 1   
    50   50   51 1   
    51   50   54 1   
    52   51   52 1   
    53   51   55 1   
    54   51   56 1   
    55   52   53 2   
    56   52   57 1   
    57   57   58 1   
    58   57   65 1   
    59   58   59 1   
    60   58   61 1   
    61   58   66 1   
    62   59   60 2   
    63   59   69 1   
    64   61   62 1   
    65   61   67 1   
    66   61   68 1   
    67   62   63 1   
    68   62   64 1   
    69   69   70 1   
    70   69   73 1   
    71   70   71 1   
    72   70   74 1   
    73   70   75 1   
    74   71   72 2   
    75   71   76 1   
    76   76   77 1   
    77   76   85 1   
    78   77   78 1   
    79   77   80 1   
    80   77   86 1   
    81   78   79 2   
    82   78   93 1   
    83   80   81 1   
    84   80   87 1   
    85   80   88 1   
    86   81   82 1   
    87   81   89 1   
    88   81   90 1   
    89   82   83 1   
    90   82   84 2   
    91   83   91 1   
    92   83   92 1   
    93   93   94 1   
    94   93  100 1   
    95   94   95 1   
    96   94   97 1   
    97   94  101 1   
    98   95   96 2   
    99   95  109 1   
   100   97   98 1   
   101   97   99 1   
   102   97  102 1   
   103   98  103 1   
   104   98  104 1   
   105   98  105 1   
   106   99  106 1   
   107   99  107 1   
   108   99  108 1   
   109  109  110 1   
   110  109  117 1   
   111  110  111 1   
   112  110  113 1   
   113  110  118 1   
   114  111  112 2   
   115  111  123 1   
   116  113  114 1   
   117  113  119 1   
   118  113  120 1   
   119  114  115 1   
   120  114  116 2   
   121  115  121 1   
   122  115  122 1   
   123  123  124 1   
   124  123  135 1   
   125  124  125 1   
   126  124  127 1   
   127  124  136 1   
   128  125  126 2   
   129  125  144 1   
   130  127  128 1   
   131  127  137 1   
   132  127  138 1   
   133  128  129 ar  
   134  128  130 ar  
   135  129  131 ar  
   136  129  139 1   
   137  130  132 ar  
   138  130  140 1   
   139  131  133 ar  
   140  131  141 1   
   141  132  133 ar  
   142  132  142 1   
   143  133  134 1   
   144  134  143 1   
   145  144  145 1   
   146  144  153 1   
   147  145  146 1   
   148  145  148 1   
   149  145  154 1   
   150  146  147 2   
   151  146  159 1   
   152  148  149 1   
   153  148  155 1   
   154  148  156 1   
   155  149  150 1   
   156  149  157 1   
   157  149  158 1   
   158  150  151 1   
   159  150  152 1   
   160  159  160 1   
   161  159  168 1   
   162  160  161 1   
   163  160  163 1   
   164  160  169 1   
   165  161  162 2   
   166  161  174 1   
   167  163  164 1   
   168  163  170 1   
   169  163  171 1   
   170  164  165 1   
   171  164  172 1   
   172  164  173 1   
   173  165  166 1   
   174  165  167 1   
   175  174  175 1   
   176  174  179 1   
   177  175  176 1   
   178  175  177 1   
   179  175  178 1   
   180  181  182 1   
   181  181  183 1   
   182  184  185 1   
   183  184  186 1   
   184  187  188 1   
   185  187  189 1   
@<TRIPOS>SUBSTRUCTURE
     1 MOL         1 TEMP              0 ****  ****    0 ROOT
