@<TRIPOS>MOLECULE
MOL
  178   175     1     0     0
SMALL
resp


@<TRIPOS>ATOM
      1 C1         -9.0790   -5.8320   -3.8370 c3        1 MOL     -0.395109
      2 C2         -8.2270   -5.2560   -2.6410 c         1 MOL      0.766199
      3 O1         -7.3860   -5.9470   -2.1020 o         1 MOL     -0.598484
      4 H1         -9.6590   -6.6880   -3.4910 hc        1 MOL      0.100075
      5 H2         -9.7560   -5.0600   -4.2060 hc        1 MOL      0.100075
      6 H3         -8.4120   -6.1460   -4.6400 hc        1 MOL      0.100075
      7 N1         -8.5050   -4.0430   -2.1710 n         1 MOL     -0.721619
      8 C3         -9.3570   -2.9770   -2.6460 c3        1 MOL      0.353255
      9 C4        -10.1900   -2.2930   -1.5370 c         1 MOL      0.366059
     10 O2        -11.1760   -1.6470   -1.7770 o         1 MOL     -0.518451
     11 C5         -8.5180   -2.0310   -3.4180 c3        1 MOL     -0.145462
     12 C6         -7.3180   -1.4220   -2.7240 c         1 MOL      0.687963
     13 O3         -7.3490   -1.2410   -1.4960 o         1 MOL     -0.727880
     14 O4         -6.2630   -1.0490   -3.2910 o         1 MOL     -0.727880
     15 H4         -7.9630   -3.7720   -1.3610 hn        1 MOL      0.334128
     16 H5        -10.0640   -3.3250   -3.3990 h1        1 MOL     -0.000462
     17 H6         -9.1890   -1.2160   -3.6910 hc        1 MOL      0.026986
     18 H7         -8.2000   -2.5220   -4.3350 hc        1 MOL      0.026986
     19 N2         -9.7900   -2.4360   -0.2470 n         1 MOL     -0.457074
     20 C7        -10.5460   -1.7730    0.8140 c3        1 MOL      0.212028
     21 C8        -10.1490   -0.3700    1.1430 c         1 MOL      0.488934
     22 O5        -10.9230    0.3410    1.7620 o         1 MOL     -0.580225
     23 C9        -10.4910   -2.7230    2.0960 c3        1 MOL     -0.389403
     24 H8         -8.9490   -2.9850   -0.1360 hn        1 MOL      0.317043
     25 H9        -11.5860   -1.7250    0.4910 h1        1 MOL      0.054815
     26 H10       -10.5050   -3.7650    1.7920 hc        1 MOL      0.108524
     27 H11        -9.5350   -2.7100    2.6160 hc        1 MOL      0.108524
     28 H12       -11.2770   -2.4990    2.8120 hc        1 MOL      0.108524
     29 N3         -8.9790    0.0740    0.6750 n         1 MOL     -0.259341
     30 C10        -8.3300    1.1810    1.3650 c3        1 MOL      0.065021
     31 C11        -7.6900    2.0590    0.3600 c         1 MOL      0.253756
     32 O6         -7.3060    1.6050   -0.7200 o         1 MOL     -0.386328
     33 C12        -7.3400    0.7330    2.5150 c3        1 MOL      0.064385
     34 C13        -6.4900   -0.4430    1.9420 c         1 MOL      0.534455
     35 O7         -5.8030   -0.1740    0.9120 o         1 MOL     -0.648832
     36 O8         -6.5080   -1.5550    2.4730 o         1 MOL     -0.648832
     37 H13        -8.5090   -0.4040   -0.0760 hn        1 MOL      0.245125
     38 H14        -9.0420    1.8100    1.9060 h1        1 MOL      0.049704
     39 H15        -7.9050    0.3380    3.3530 hc        1 MOL     -0.024065
     40 H16        -6.6600    1.5500    2.7910 hc        1 MOL     -0.024065
     41 N4         -7.5310    3.3870    0.6790 n         1 MOL     -0.203481
     42 C14        -6.7540    4.3920   -0.0640 c3        1 MOL     -0.414721
     43 C15        -5.2540    4.1750   -0.3360 c         1 MOL      0.976665
     44 O9         -4.8180    3.0620   -0.6300 o         1 MOL     -0.777765
     45 H17        -7.8470    3.7660    1.5570 hn        1 MOL      0.258213
     46 H18        -6.7760    5.3620    0.4270 h1        1 MOL      0.135661
     47 H19        -7.1480    4.5060   -1.0710 h1        1 MOL      0.135661
     48 N5         -4.4060    5.1760   -0.3000 n         1 MOL     -0.745703
     49 C16        -2.9910    4.9920   -0.4940 c3        1 MOL      0.170122
     50 C17        -2.4370    4.1260    0.6210 c         1 MOL      0.778999
     51 O10        -2.7320    4.3120    1.7940 o         1 MOL     -0.585853
     52 C18        -2.2450    6.3690   -0.3420 c3        1 MOL     -0.490848
     53 C19        -2.4150    7.2400   -1.5790 c         1 MOL      0.836446
     54 N6         -3.2490    8.2480   -1.4670 n         1 MOL     -0.869411
     55 O11        -1.7670    7.1130   -2.6080 o         1 MOL     -0.580717
     56 H20        -4.7400    6.0700    0.0200 hn        1 MOL      0.320615
     57 H21        -2.6360    4.5010   -1.3940 h1        1 MOL      0.061494
     58 H22        -1.1630    6.2170   -0.3120 hc        1 MOL      0.147527
     59 H23        -2.5240    6.8960    0.5640 hc        1 MOL      0.147527
     60 H24        -3.8270    8.2290   -0.6420 hn        1 MOL      0.379205
     61 H25        -3.3220    8.9130   -2.2220 hn        1 MOL      0.379205
     62 N7         -1.6490    3.0630    0.3390 n         1 MOL     -0.789811
     63 C20        -1.2560    1.9700    1.2000 c3        1 MOL      0.436982
     64 C21        -2.2720    0.8500    1.0370 c         1 MOL      0.531291
     65 O12        -2.8810    0.7770   -0.0110 o         1 MOL     -0.558756
     66 H26        -1.3870    2.9120   -0.6260 hn        1 MOL      0.358320
     67 H27        -1.2570    2.3400    2.2260 h1        1 MOL      0.006298
     68 H28        -0.3010    1.5660    0.8980 h1        1 MOL      0.006298
     69 N8         -2.5590    0.0510    2.0690 n         1 MOL     -0.527146
     70 C22        -1.9100   -0.0680    3.4440 c3        1 MOL      0.065266
     71 C23        -0.3990   -0.1510    3.4030 c         1 MOL      0.265326
     72 O13         0.1610    0.6790    4.1080 o         1 MOL     -0.516474
     73 C24        -2.3300   -1.2780    4.1860 c3        1 MOL      0.256707
     74 C25        -3.8160   -1.3270    4.5890 c3        1 MOL     -0.531908
     75 O14        -2.1190   -2.4110    3.3000 oh        1 MOL     -0.602652
     76 H29        -3.2080   -0.6900    1.8290 hn        1 MOL      0.343142
     77 H30        -2.1350    0.7070    4.1750 h1        1 MOL      0.098877
     78 H31        -1.7170   -1.5600    5.0320 h1        1 MOL      0.086643
     79 H32        -2.1960   -3.1600    3.8870 ho        1 MOL      0.396194
     80 H33        -4.0110   -2.3360    4.9530 hc        1 MOL      0.148406
     81 H34        -3.9000   -0.5410    5.3480 hc        1 MOL      0.148406
     82 H35        -4.4380   -1.0160    3.7610 hc        1 MOL      0.148406
     83 N9          0.2560   -0.8530    2.4640 n         1 MOL     -0.297275
     84 C26         1.8230   -1.0580    2.3590 c3        1 MOL      0.059292
     85 C27         2.3050   -1.2160    0.8600 c         1 MOL      0.443335
     86 O15         1.5460   -1.8980    0.1880 o         1 MOL     -0.546855
     87 C28         2.3980   -2.3320    3.1950 c3        1 MOL     -0.000499
     88 C29         1.6430   -2.5490    4.5510 c3        1 MOL      0.006337
     89 C30         3.9250   -2.1600    3.2990 c3        1 MOL      0.042453
     90 C31         2.0550   -1.4050    5.5210 c3        1 MOL     -0.140093
     91 H36        -0.2330   -1.5210    1.8800 hn        1 MOL      0.259338
     92 H37         2.3210   -0.1780    2.7580 h1        1 MOL      0.120554
     93 H38         2.1760   -3.1720    2.5400 hc        1 MOL      0.033076
     94 H39         1.8440   -3.5610    4.9030 hc        1 MOL     -0.001857
     95 H40         0.5710   -2.4790    4.3840 hc        1 MOL     -0.001857
     96 H41         4.3790   -2.8440    4.0130 hc        1 MOL      0.006650
     97 H42         4.3670   -2.2560    2.3100 hc        1 MOL      0.006650
     98 H43         4.0830   -1.1570    3.6850 hc        1 MOL      0.006650
     99 H44         3.0290   -1.6630    5.9490 hc        1 MOL      0.023112
    100 H45         2.0870   -0.3930    5.1170 hc        1 MOL      0.023112
    101 H46         1.4130   -1.4460    6.4010 hc        1 MOL      0.023112
    102 N10         3.4250   -0.7340    0.3050 n         1 MOL     -0.302903
    103 C32         4.3340    0.3240    0.7970 c3        1 MOL     -0.057892
    104 C33         5.7170    0.3390    0.1300 c         1 MOL      0.477193
    105 O16         5.7880    0.2390   -1.1070 o         1 MOL     -0.453989
    106 C34         3.6680    1.6930    0.6950 c3        1 MOL     -0.101822
    107 C35         3.3330    2.2620   -0.7100 c         1 MOL      0.656753
    108 O17         4.1130    3.0720   -1.2130 o         1 MOL     -0.698840
    109 O18         2.2820    1.9160   -1.2890 o         1 MOL     -0.698840
    110 H47         3.4450   -0.8990   -0.6950 hn        1 MOL      0.281250
    111 H48         4.4790    0.2100    1.8710 h1        1 MOL      0.077417
    112 H49         4.1760    2.4130    1.3270 hc        1 MOL     -0.008361
    113 H50         2.7410    1.5820    1.2430 hc        1 MOL     -0.008361
    114 N11         6.7790    0.5860    0.8610 n         1 MOL     -0.478118
    115 C36         8.1180    0.9170    0.3370 c3        1 MOL      0.510892
    116 C37         9.2350    0.0400    0.9820 c         1 MOL      0.097425
    117 O19         9.2200   -0.0560    2.1840 o         1 MOL     -0.472951
    118 C38         8.2240    2.4430    0.5300 c3        1 MOL     -0.341395
    119 C39         9.5920    3.0210    0.0310 ca        1 MOL      0.244283
    120 C40        10.7190    2.7430    0.8230 ca        1 MOL     -0.291261
    121 C41         9.7380    3.5520   -1.2590 ca        1 MOL     -0.291261
    122 C42        11.9950    3.0220    0.2130 ca        1 MOL     -0.061064
    123 C43        11.0140    3.9480   -1.6920 ca        1 MOL     -0.061064
    124 C44        12.1550    3.6720   -0.9920 ca        1 MOL     -0.175022
    125 H51         6.7040    0.5020    1.8620 hn        1 MOL      0.280198
    126 H52         8.1050    0.7700   -0.7500 h1        1 MOL      0.010600
    127 H53         8.2510    2.7320    1.5770 hc        1 MOL      0.096366
    128 H54         7.3520    2.8340    0.0060 hc        1 MOL      0.096366
    129 H55        10.6290    2.2970    1.8050 ha        1 MOL      0.175948
    130 H56         8.9010    3.6790   -1.9310 ha        1 MOL      0.175948
    131 H57        12.9040    2.6370    0.6420 ha        1 MOL      0.085910
    132 H58        11.0800    4.4700   -2.6400 ha        1 MOL      0.085910
    133 H59        13.1190    3.7900   -1.4630 ha        1 MOL      0.109702
    134 N12        10.2500   -0.4750    0.2080 n         1 MOL      0.187203
    135 C45        10.3680   -0.5020   -1.2510 c3        1 MOL      0.010029
    136 C46         9.1520   -1.1750   -1.9420 c         1 MOL      0.374969
    137 O20         8.6730   -0.6340   -2.9580 o         1 MOL     -0.558976
    138 C47        11.7340   -1.1140   -1.6200 c3        1 MOL      0.009510
    139 C48        12.5950   -0.9740   -0.3040 c3        1 MOL     -0.079484
    140 C49        11.4940   -0.9940    0.7820 c3        1 MOL     -0.122916
    141 H60        10.3710    0.5380   -1.5650 h1        1 MOL      0.051261
    142 H61        11.6490   -2.1550   -1.9120 hc        1 MOL      0.017996
    143 H62        12.2060   -0.5460   -2.4180 hc        1 MOL      0.017996
    144 H63        13.2680   -1.8180   -0.1730 hc        1 MOL      0.030504
    145 H64        13.0820    0.0050   -0.3330 hc        1 MOL      0.030504
    146 H65        11.2310   -1.9940    1.1630 h1        1 MOL      0.057788
    147 H66        11.8410   -0.3830    1.6140 h1        1 MOL      0.057788
    148 N13         8.4660   -2.1240   -1.3000 n         1 MOL     -0.371971
    149 C50         7.3180   -2.8890   -1.9040 c3        1 MOL      0.281590
    150 C51         7.7050   -3.6170   -3.2580 c         1 MOL      0.374019
    151 O21         8.3020   -4.7050   -3.2680 o         1 MOL     -0.566768
    152 C52         6.9140   -4.0010   -0.8820 c3        1 MOL     -0.112476
    153 C53         6.3380   -3.3400    0.3770 c3        1 MOL     -0.067723
    154 C54         6.5490   -4.1510    1.6270 c         1 MOL      0.740218
    155 O22         6.0510   -5.2820    1.7130 o         1 MOL     -0.746999
    156 O23         7.0840   -3.6900    2.6660 o         1 MOL     -0.746999
    157 H67         8.8080   -2.3750   -0.3810 hn        1 MOL      0.237792
    158 H68         6.5430   -2.1520   -2.0980 h1        1 MOL      0.049206
    159 H69         7.6440   -4.7720   -0.6300 hc        1 MOL      0.037272
    160 H70         6.0800   -4.5500   -1.3200 hc        1 MOL      0.037272
    161 H71         5.3470   -2.9640    0.1410 hc        1 MOL     -0.050017
    162 H72         6.7990   -2.3640    0.5800 hc        1 MOL     -0.050017
    163 N14         7.3980   -3.1080   -4.4580 n         1 MOL     -0.241902
    164 C55         6.5130   -2.0390   -4.9370 c3        1 MOL     -0.273821
    165 H73         7.0330   -1.0830   -4.8750 h1        1 MOL      0.116607
    166 H74         6.2350   -2.2330   -5.9730 h1        1 MOL      0.116607
    167 H75         5.6160   -2.0050   -4.3190 h1        1 MOL      0.116607
    168 H76         7.7050   -3.7240   -5.1990 hn        1 MOL      0.233706
    169 Ca1        -5.0810    0.3880   -1.3560 Ca        1 MOL      1.792126
    170 O24        -4.3010   -2.2360   -0.8340 oh        1 MOL     -0.867206
    171 H77        -4.6030   -2.9370   -1.4120 ho        1 MOL      0.423514
    172 H78        -4.0650   -2.6770   -0.0210 ho        1 MOL      0.423514
    173 O25        -5.7720    1.9240   -3.5350 oh        1 MOL     -0.867206
    174 H79        -5.2580    1.7430   -4.3290 ho        1 MOL      0.423514
    175 H80        -5.9370    2.8550   -3.5690 ho        1 MOL      0.423514
    176 O26        -3.0480    0.4310   -3.1080 oh        1 MOL     -0.867206
    177 H81        -2.1050    0.5310   -2.9410 ho        1 MOL      0.423514
    178 H82        -3.1360    0.5340   -4.0590 ho        1 MOL      0.423514
@<TRIPOS>BOND
     1    1    2 1   
     2    1    4 1   
     3    1    5 1   
     4    1    6 1   
     5    2    3 2   
     6    2    7 1   
     7    7    8 1   
     8    7   15 1   
     9    8    9 1   
    10    8   11 1   
    11    8   16 1   
    12    9   10 2   
    13    9   19 1   
    14   11   12 1   
    15   11   17 1   
    16   11   18 1   
    17   12   13 1   
    18   12   14 1   
    19   19   20 1   
    20   19   24 1   
    21   20   21 1   
    22   20   23 1   
    23   20   25 1   
    24   21   22 2   
    25   21   29 1   
    26   23   26 1   
    27   23   27 1   
    28   23   28 1   
    29   29   30 1   
    30   29   37 1   
    31   30   31 1   
    32   30   33 1   
    33   30   38 1   
    34   31   32 2   
    35   31   41 1   
    36   33   34 1   
    37   33   39 1   
    38   33   40 1   
    39   34   35 1   
    40   34   36 1   
    41   41   42 1   
    42   41   45 1   
    43   42   43 1   
    44   42   46 1   
    45   42   47 1   
    46   43   44 2   
    47   43   48 1   
    48   48   49 1   
    49   48   56 1   
    50   49   50 1   
    51   49   52 1   
    52   49   57 1   
    53   50   51 2   
    54   50   62 1   
    55   52   53 1   
    56   52   58 1   
    57   52   59 1   
    58   53   54 1   
    59   53   55 2   
    60   54   60 1   
    61   54   61 1   
    62   62   63 1   
    63   62   66 1   
    64   63   64 1   
    65   63   67 1   
    66   63   68 1   
    67   64   65 2   
    68   64   69 1   
    69   69   70 1   
    70   69   76 1   
    71   70   71 1   
    72   70   73 1   
    73   70   77 1   
    74   71   72 2   
    75   71   83 1   
    76   73   74 1   
    77   73   75 1   
    78   73   78 1   
    79   74   80 1   
    80   74   81 1   
    81   74   82 1   
    82   75   79 1   
    83   83   84 1   
    84   83   91 1   
    85   84   85 1   
    86   84   87 1   
    87   84   92 1   
    88   85   86 2   
    89   85  102 1   
    90   87   88 1   
    91   87   89 1   
    92   87   93 1   
    93   88   90 1   
    94   88   94 1   
    95   88   95 1   
    96   89   96 1   
    97   89   97 1   
    98   89   98 1   
    99   90   99 1   
   100   90  100 1   
   101   90  101 1   
   102  102  103 1   
   103  102  110 1   
   104  103  104 1   
   105  103  106 1   
   106  103  111 1   
   107  104  105 2   
   108  104  114 1   
   109  106  107 1   
   110  106  112 1   
   111  106  113 1   
   112  107  108 1   
   113  107  109 1   
   114  114  115 1   
   115  114  125 1   
   116  115  116 1   
   117  115  118 1   
   118  115  126 1   
   119  116  117 2   
   120  116  134 1   
   121  118  119 1   
   122  118  127 1   
   123  118  128 1   
   124  119  120 ar  
   125  119  121 ar  
   126  120  122 ar  
   127  120  129 1   
   128  121  123 ar  
   129  121  130 1   
   130  122  124 ar  
   131  122  131 1   
   132  123  124 ar  
   133  123  132 1   
   134  124  133 1   
   135  134  135 1   
   136  134  140 1   
   137  135  136 1   
   138  135  138 1   
   139  135  141 1   
   140  136  137 2   
   141  136  148 1   
   142  138  139 1   
   143  138  142 1   
   144  138  143 1   
   145  139  140 1   
   146  139  144 1   
   147  139  145 1   
   148  140  146 1   
   149  140  147 1   
   150  148  149 1   
   151  148  157 1   
   152  149  150 1   
   153  149  152 1   
   154  149  158 1   
   155  150  151 2   
   156  150  163 1   
   157  152  153 1   
   158  152  159 1   
   159  152  160 1   
   160  153  154 1   
   161  153  161 1   
   162  153  162 1   
   163  154  155 1   
   164  154  156 1   
   165  163  164 1   
   166  163  168 1   
   167  164  165 1   
   168  164  166 1   
   169  164  167 1   
   170  170  171 1   
   171  170  172 1   
   172  173  174 1   
   173  173  175 1   
   174  176  177 1   
   175  176  178 1   
@<TRIPOS>SUBSTRUCTURE
     1 MOL         1 TEMP              0 ****  ****    0 ROOT
