@<TRIPOS>MOLECULE
MOL
  178   175     1     0     0
SMALL
resp


@<TRIPOS>ATOM
      1 C1         -1.2670   -6.3640   -3.5300 c3        1 MOL     -0.465025
      2 C2         -2.5720   -6.2260   -2.7540 c         1 MOL      0.668238
      3 O1         -2.7430   -6.9460   -1.7420 o         1 MOL     -0.563443
      4 H1         -1.2650   -5.6610   -4.3630 hc        1 MOL      0.113795
      5 H2         -0.4270   -6.1460   -2.8710 hc        1 MOL      0.113795
      6 H3         -1.1760   -7.3800   -3.9130 hc        1 MOL      0.113795
      7 N1         -3.4990   -5.4230   -3.2700 n         1 MOL     -0.431262
      8 C3         -4.6570   -5.1330   -2.4950 c3        1 MOL     -0.042122
      9 C4         -4.4580   -4.2740   -1.2470 c         1 MOL      0.683019
     10 O2         -4.0460   -3.1550   -1.2790 o         1 MOL     -0.553626
     11 C5         -5.6830   -4.4550   -3.4400 c3        1 MOL     -0.306594
     12 C6         -7.0300   -4.3460   -2.6920 c         1 MOL      0.763164
     13 O3         -7.4700   -5.2370   -1.9300 o         1 MOL     -0.735135
     14 O4         -7.7030   -3.3390   -2.8520 o         1 MOL     -0.735135
     15 H4         -3.2720   -4.8020   -4.0340 hn        1 MOL      0.292608
     16 H5         -5.0990   -6.0660   -2.1580 h1        1 MOL      0.062799
     17 H6         -5.7410   -5.0090   -4.3820 hc        1 MOL      0.054826
     18 H7         -5.3100   -3.4870   -3.7630 hc        1 MOL      0.054826
     19 N2         -4.6660   -4.8710   -0.0710 n         1 MOL     -0.507509
     20 C7         -4.6670   -4.3130    1.2710 c3        1 MOL      0.423028
     21 C8         -3.1330   -4.4070    1.5840 c         1 MOL      0.398705
     22 O5         -2.4630   -5.3850    1.2890 o         1 MOL     -0.517298
     23 C9         -5.4140   -5.2020    2.2430 c3        1 MOL     -0.400824
     24 H8         -4.6040   -5.8790   -0.0490 hn        1 MOL      0.276393
     25 H9         -5.0490   -3.3050    1.3630 h1        1 MOL      0.014316
     26 H10        -6.3030   -5.5500    1.7100 hc        1 MOL      0.096347
     27 H11        -4.9360   -6.1500    2.4810 hc        1 MOL      0.096347
     28 H12        -5.6150   -4.7810    3.2320 hc        1 MOL      0.096347
     29 N3         -2.6030   -3.4120    2.3920 n         1 MOL     -0.401645
     30 C10        -3.3140   -2.3940    3.1710 c3        1 MOL      0.002118
     31 C11        -3.5550   -1.0520    2.4340 c         1 MOL      0.611300
     32 O6         -2.9590   -0.7470    1.3670 o         1 MOL     -0.552018
     33 C12        -2.6230   -2.2630    4.5480 c3        1 MOL     -0.020773
     34 C13        -1.2380   -1.6090    4.5060 c         1 MOL      0.603738
     35 O7         -0.7900   -1.3100    5.6460 o         1 MOL     -0.665840
     36 O8         -0.6820   -1.2610    3.4120 o         1 MOL     -0.665840
     37 H13        -1.5870   -3.4520    2.3850 hn        1 MOL      0.248657
     38 H14        -4.2840   -2.8070    3.4570 h1        1 MOL      0.007257
     39 H15        -2.4120   -3.2670    4.9300 hc        1 MOL     -0.006805
     40 H16        -3.3370   -1.7820    5.2280 hc        1 MOL     -0.006805
     41 N4         -4.5560   -0.3370    2.9940 n         1 MOL     -0.481395
     42 C14        -5.0330    0.9140    2.4330 c3        1 MOL     -0.321930
     43 C15        -5.8860    0.8550    1.2260 c         1 MOL      0.694635
     44 O9         -6.2890   -0.2550    0.8350 o         1 MOL     -0.524188
     45 H17        -5.0440   -0.6170    3.8310 hn        1 MOL      0.339475
     46 H18        -4.1680    1.5670    2.3300 h1        1 MOL      0.192731
     47 H19        -5.7400    1.2680    3.1900 h1        1 MOL      0.192731
     48 N5         -6.2470    1.9220    0.5410 n         1 MOL     -0.645014
     49 C16        -6.1070    3.3590    0.8780 c3        1 MOL      0.065516
     50 C17        -5.7620    4.2670   -0.3000 c         1 MOL      0.673725
     51 O10        -5.5930    5.4950   -0.1200 o         1 MOL     -0.595537
     52 C18        -7.4180    3.8790    1.4610 c3        1 MOL     -0.435378
     53 C19        -7.8920    3.2120    2.7540 c         1 MOL      0.832544
     54 N6         -8.9580    2.4490    2.7690 n         1 MOL     -0.878413
     55 O11        -7.3350    3.3960    3.7840 o         1 MOL     -0.586827
     56 H20        -6.9550    1.6930   -0.1390 hn        1 MOL      0.318623
     57 H21        -5.2990    3.4190    1.6000 h1        1 MOL      0.087891
     58 H22        -8.2510    3.7840    0.7590 hc        1 MOL      0.118836
     59 H23        -7.2850    4.9310    1.7180 hc        1 MOL      0.118836
     60 H24        -9.5090    2.3220    1.9340 hn        1 MOL      0.384586
     61 H25        -9.1370    1.8740    3.5760 hn        1 MOL      0.384586
     62 N7         -5.6100    3.8360   -1.4860 n         1 MOL     -0.401245
     63 C20        -5.2400    4.5430   -2.7730 c3        1 MOL     -0.133470
     64 C21        -3.7540    5.0280   -2.9190 c         1 MOL      0.579141
     65 O12        -3.4160    5.4670   -4.0280 o         1 MOL     -0.583954
     66 H26        -5.5490    2.8320   -1.5850 hn        1 MOL      0.287757
     67 H27        -5.8640    5.4380   -2.8550 h1        1 MOL      0.107763
     68 H28        -5.4810    3.9590   -3.6600 h1        1 MOL      0.107763
     69 N8         -2.9210    4.9410   -1.9210 n         1 MOL     -0.410965
     70 C22        -1.5060    5.4380   -1.9700 c3        1 MOL      0.104952
     71 C23        -0.4650    4.3350   -1.7600 c         1 MOL      0.557170
     72 O13        -0.8480    3.2360   -1.3770 o         1 MOL     -0.528012
     73 C24        -1.4480    6.5960   -0.9070 c3        1 MOL      0.356037
     74 C25        -2.3570    7.8160   -0.9240 c3        1 MOL     -0.276858
     75 O14        -1.6520    5.9860    0.3090 oh        1 MOL     -0.584511
     76 H29        -3.2900    4.5430   -1.0770 hn        1 MOL      0.280506
     77 H30        -1.3210    5.8930   -2.9410 h1        1 MOL      0.037394
     78 H31        -0.4430    7.0120   -1.0040 h1        1 MOL     -0.042942
     79 H32        -1.0480    6.4690    0.8770 ho        1 MOL      0.391198
     80 H33        -3.3990    7.5490   -1.1090 hc        1 MOL      0.066325
     81 H34        -2.2560    8.4870   -0.0710 hc        1 MOL      0.066325
     82 H35        -2.0900    8.4290   -1.7830 hc        1 MOL      0.066325
     83 N9          0.7990    4.7040   -1.9650 n         1 MOL     -0.485283
     84 C26         2.0270    3.8740   -1.8550 c3        1 MOL     -0.009397
     85 C27         2.6180    4.0430   -0.4300 c         1 MOL      0.649401
     86 O15         2.7870    5.2120   -0.0130 o         1 MOL     -0.621907
     87 C28         3.1430    4.1250   -2.9240 c3        1 MOL      0.208988
     88 C29         4.2270    3.1020   -2.8930 c3        1 MOL     -0.020849
     89 C30         2.4950    4.2820   -4.3320 c3        1 MOL     -0.302996
     90 C31         5.3460    3.3260   -1.8040 c3        1 MOL     -0.300228
     91 H36         0.9780    5.6840   -2.1160 hn        1 MOL      0.263677
     92 H37         1.7050    2.8390   -1.9270 h1        1 MOL      0.167560
     93 H38         3.5240    5.1250   -2.7170 hc        1 MOL     -0.016718
     94 H39         4.7700    3.1270   -3.8440 hc        1 MOL      0.022094
     95 H40         3.7350    2.1490   -2.7550 hc        1 MOL      0.022094
     96 H41         2.0560    3.3400   -4.6430 hc        1 MOL      0.059638
     97 H42         1.6490    4.9670   -4.2600 hc        1 MOL      0.059638
     98 H43         3.2210    4.6320   -5.0630 hc        1 MOL      0.059638
     99 H44         5.2490    2.5640   -1.0330 hc        1 MOL      0.064240
    100 H45         6.3330    3.3120   -2.2820 hc        1 MOL      0.064240
    101 H46         5.2280    4.3340   -1.4170 hc        1 MOL      0.064240
    102 N10         2.7600    2.9880    0.3260 n         1 MOL     -0.542240
    103 C32         2.8850    2.9950    1.7520 c3        1 MOL     -0.027175
    104 C33         3.8960    1.9740    2.2660 c         1 MOL      0.436575
    105 O16         4.0360    1.9210    3.4660 o         1 MOL     -0.494175
    106 C34         1.4350    2.8900    2.3000 c3        1 MOL     -0.182617
    107 C35         0.7860    1.5620    2.0240 c         1 MOL      0.903627
    108 O17        -0.4250    1.4990    1.8110 o         1 MOL     -0.799328
    109 O18         1.3410    0.4340    2.0310 o         1 MOL     -0.799328
    110 H47         2.4740    2.1060   -0.0640 hn        1 MOL      0.349032
    111 H48         3.1620    4.0170    2.0260 h1        1 MOL      0.107873
    112 H49         0.7270    3.6180    1.8920 hc        1 MOL      0.065311
    113 H50         1.4060    2.9730    3.3830 hc        1 MOL      0.065311
    114 N11         4.6110    1.2080    1.3800 n         1 MOL     -0.405988
    115 C36         5.6650    0.3060    1.6850 c3        1 MOL      0.192246
    116 C37         5.8500   -0.9830    0.7690 c         1 MOL      0.306145
    117 O19         6.5600   -0.9770   -0.2480 o         1 MOL     -0.495283
    118 C38         6.8990    1.2140    1.5470 c3        1 MOL     -0.091895
    119 C39         8.1200    0.7210    2.2940 ca        1 MOL      0.045159
    120 C40         9.0810   -0.1810    1.7100 ca        1 MOL     -0.125639
    121 C41         8.2910    1.0630    3.6700 ca        1 MOL     -0.125639
    122 C42        10.2120   -0.5730    2.5340 ca        1 MOL     -0.153641
    123 C43         9.3660    0.5620    4.4560 ca        1 MOL     -0.153641
    124 C44        10.3250   -0.2950    3.8980 ca        1 MOL     -0.101506
    125 H51         4.4180    1.3310    0.3890 hn        1 MOL      0.416128
    126 H52         5.5520   -0.0460    2.7090 h1        1 MOL      0.054503
    127 H53         6.6230    2.1960    1.9370 hc        1 MOL      0.026782
    128 H54         7.0730    1.5010    0.5130 hc        1 MOL      0.026782
    129 H55         9.0300   -0.4880    0.6700 ha        1 MOL      0.116917
    130 H56         7.5320    1.6260    4.1940 ha        1 MOL      0.116917
    131 H57        11.0310   -1.1030    2.0900 ha        1 MOL      0.103956
    132 H58         9.4790    0.7720    5.5200 ha        1 MOL      0.103956
    133 H59        11.1530   -0.6610    4.4940 ha        1 MOL      0.098116
    134 N12         5.1250   -2.0620    1.0260 n         1 MOL     -0.135670
    135 C45         5.3480   -3.3020    0.2470 c3        1 MOL      0.091748
    136 C46         5.0630   -3.1820   -1.2690 c         1 MOL      0.277310
    137 O20         5.5360   -4.0020   -2.0320 o         1 MOL     -0.470736
    138 C47         4.3310   -4.2850    0.8490 c3        1 MOL     -0.241480
    139 C48         3.3490   -3.4120    1.6100 c3        1 MOL      0.144827
    140 C49         4.0150   -2.1290    1.9650 c3        1 MOL     -0.129323
    141 H60         6.3600   -3.6880    0.3480 h1        1 MOL      0.076250
    142 H61         3.7510   -4.8060    0.0820 hc        1 MOL      0.071467
    143 H62         4.8530   -4.9840    1.5100 hc        1 MOL      0.071467
    144 H63         2.5850   -3.1550    0.8660 hc        1 MOL      0.030438
    145 H64         3.0270   -3.9970    2.4650 hc        1 MOL      0.030438
    146 H65         3.2150   -1.4140    1.7750 h1        1 MOL      0.066966
    147 H66         4.2910   -2.0680    3.0100 h1        1 MOL      0.066966
    148 N13         4.3000   -2.2000   -1.7730 n         1 MOL     -0.078415
    149 C50         4.2550   -2.0110   -3.1840 c3        1 MOL     -0.024215
    150 C51         5.6610   -1.8860   -3.8550 c         1 MOL      0.409491
    151 O21         5.9200   -2.5600   -4.8590 o         1 MOL     -0.527734
    152 C52         3.6460   -0.6370   -3.4020 c3        1 MOL     -0.020762
    153 C53         2.1240   -0.5500   -3.0540 c3        1 MOL     -0.045719
    154 C54         1.8220   -0.5440   -1.5440 c         1 MOL      0.428219
    155 O22         1.3980   -1.5860   -0.9490 o         1 MOL     -0.650487
    156 O23         2.1140    0.5040   -0.9010 o         1 MOL     -0.650487
    157 H67         3.8470   -1.5660   -1.1350 hn        1 MOL      0.186158
    158 H68         3.7020   -2.8170   -3.6660 h1        1 MOL      0.094991
    159 H69         3.7290   -0.3570   -4.4510 hc        1 MOL     -0.011970
    160 H70         4.1920    0.0900   -2.7890 hc        1 MOL     -0.011970
    161 H71         1.7150   -1.4770   -3.4610 hc        1 MOL      0.028603
    162 H72         1.7190    0.3010   -3.5960 hc        1 MOL      0.028603
    163 N14         6.6300   -1.1510   -3.2770 n         1 MOL     -0.211626
    164 C55         8.0670   -1.1160   -3.6540 c3        1 MOL     -0.192109
    165 H73         8.6160   -1.8420   -3.0560 h1        1 MOL      0.089067
    166 H74         8.1720   -1.3610   -4.7110 h1        1 MOL      0.089067
    167 H75         8.4670   -0.1190   -3.4700 h1        1 MOL      0.089067
    168 H76         6.3690   -0.4600   -2.5770 hn        1 MOL      0.229576
    169 Ca1        -0.2890   -1.0430    0.8760 Ca        1 MOL      1.774677
    170 O24        -1.6140   -2.5900   -0.7670 oh        1 MOL     -0.836233
    171 H77        -2.5320   -2.5980   -1.0210 ho        1 MOL      0.391706
    172 H78        -1.2250   -3.3230   -1.2260 ho        1 MOL      0.391706
    173 O25         0.3740   -3.4060    1.6920 oh        1 MOL     -0.836233
    174 H79         0.7240   -3.4220    2.5850 ho        1 MOL      0.391706
    175 H80         0.2920   -4.3340    1.4580 ho        1 MOL      0.391706
    176 O26        -1.0500    0.6130   -1.3520 oh        1 MOL     -0.836233
    177 H81        -1.9190    0.3300   -1.6480 ho        1 MOL      0.391706
    178 H82        -1.0290    1.5520   -1.5590 ho        1 MOL      0.391706
@<TRIPOS>BOND
     1    1    2 1   
     2    1    4 1   
     3    1    5 1   
     4    1    6 1   
     5    2    3 2   
     6    2    7 1   
     7    7    8 1   
     8    7   15 1   
     9    8    9 1   
    10    8   11 1   
    11    8   16 1   
    12    9   10 2   
    13    9   19 1   
    14   11   12 1   
    15   11   17 1   
    16   11   18 1   
    17   12   13 1   
    18   12   14 1   
    19   19   20 1   
    20   19   24 1   
    21   20   21 1   
    22   20   23 1   
    23   20   25 1   
    24   21   22 2   
    25   21   29 1   
    26   23   26 1   
    27   23   27 1   
    28   23   28 1   
    29   29   30 1   
    30   29   37 1   
    31   30   31 1   
    32   30   33 1   
    33   30   38 1   
    34   31   32 2   
    35   31   41 1   
    36   33   34 1   
    37   33   39 1   
    38   33   40 1   
    39   34   35 1   
    40   34   36 1   
    41   41   42 1   
    42   41   45 1   
    43   42   43 1   
    44   42   46 1   
    45   42   47 1   
    46   43   44 2   
    47   43   48 1   
    48   48   49 1   
    49   48   56 1   
    50   49   50 1   
    51   49   52 1   
    52   49   57 1   
    53   50   51 2   
    54   50   62 1   
    55   52   53 1   
    56   52   58 1   
    57   52   59 1   
    58   53   54 1   
    59   53   55 2   
    60   54   60 1   
    61   54   61 1   
    62   62   63 1   
    63   62   66 1   
    64   63   64 1   
    65   63   67 1   
    66   63   68 1   
    67   64   65 2   
    68   64   69 1   
    69   69   70 1   
    70   69   76 1   
    71   70   71 1   
    72   70   73 1   
    73   70   77 1   
    74   71   72 2   
    75   71   83 1   
    76   73   74 1   
    77   73   75 1   
    78   73   78 1   
    79   74   80 1   
    80   74   81 1   
    81   74   82 1   
    82   75   79 1   
    83   83   84 1   
    84   83   91 1   
    85   84   85 1   
    86   84   87 1   
    87   84   92 1   
    88   85   86 2   
    89   85  102 1   
    90   87   88 1   
    91   87   89 1   
    92   87   93 1   
    93   88   90 1   
    94   88   94 1   
    95   88   95 1   
    96   89   96 1   
    97   89   97 1   
    98   89   98 1   
    99   90   99 1   
   100   90  100 1   
   101   90  101 1   
   102  102  103 1   
   103  102  110 1   
   104  103  104 1   
   105  103  106 1   
   106  103  111 1   
   107  104  105 2   
   108  104  114 1   
   109  106  107 1   
   110  106  112 1   
   111  106  113 1   
   112  107  108 1   
   113  107  109 1   
   114  114  115 1   
   115  114  125 1   
   116  115  116 1   
   117  115  118 1   
   118  115  126 1   
   119  116  117 2   
   120  116  134 1   
   121  118  119 1   
   122  118  127 1   
   123  118  128 1   
   124  119  120 ar  
   125  119  121 ar  
   126  120  122 ar  
   127  120  129 1   
   128  121  123 ar  
   129  121  130 1   
   130  122  124 ar  
   131  122  131 1   
   132  123  124 ar  
   133  123  132 1   
   134  124  133 1   
   135  134  135 1   
   136  134  140 1   
   137  135  136 1   
   138  135  138 1   
   139  135  141 1   
   140  136  137 2   
   141  136  148 1   
   142  138  139 1   
   143  138  142 1   
   144  138  143 1   
   145  139  140 1   
   146  139  144 1   
   147  139  145 1   
   148  140  146 1   
   149  140  147 1   
   150  148  149 1   
   151  148  157 1   
   152  149  150 1   
   153  149  152 1   
   154  149  158 1   
   155  150  151 2   
   156  150  163 1   
   157  152  153 1   
   158  152  159 1   
   159  152  160 1   
   160  153  154 1   
   161  153  161 1   
   162  153  162 1   
   163  154  155 1   
   164  154  156 1   
   165  163  164 1   
   166  163  168 1   
   167  164  165 1   
   168  164  166 1   
   169  164  167 1   
   170  170  171 1   
   171  170  172 1   
   172  173  174 1   
   173  173  175 1   
   174  176  177 1   
   175  176  178 1   
@<TRIPOS>SUBSTRUCTURE
     1 MOL         1 TEMP              0 ****  ****    0 ROOT
