@<TRIPOS>MOLECULE
MOL
  181   177     1     0     0
SMALL
resp


@<TRIPOS>ATOM
      1 C1          1.1210    5.9590   -2.6600 c3        1 MOL     -0.351363
      2 C2          2.6020    6.0240   -2.1240 c         1 MOL      0.662915
      3 O1          2.9770    6.8080   -1.2320 o         1 MOL     -0.579839
      4 H1          0.4440    6.3550   -1.9020 hc        1 MOL      0.088088
      5 H2          1.0370    6.5540   -3.5690 hc        1 MOL      0.088088
      6 H3          0.8570    4.9240   -2.8760 hc        1 MOL      0.088088
      7 N1          3.5240    5.1540   -2.6570 n         1 MOL     -0.536712
      8 C3          4.9290    5.1300   -2.1870 c3        1 MOL      0.125287
      9 C4          4.9000    4.2630   -0.8790 c         1 MOL      0.608063
     10 O2          4.4630    3.1220   -0.8380 o         1 MOL     -0.554262
     11 C5          5.8650    4.5150   -3.2330 c3        1 MOL     -0.252826
     12 C6          7.2940    4.5320   -2.6540 c         1 MOL      0.644325
     13 O3          7.7440    5.5990   -2.1290 o         1 MOL     -0.705377
     14 O4          7.9420    3.4280   -2.5470 o         1 MOL     -0.705377
     15 H4          3.1980    4.6350   -3.4690 hn        1 MOL      0.276244
     16 H5          5.2750    6.1400   -1.9920 h1        1 MOL      0.054330
     17 H6          5.9160    5.0550   -4.1790 hc        1 MOL      0.035116
     18 H7          5.5360    3.4980   -3.4540 hc        1 MOL      0.035116
     19 N2          5.2280    4.8260    0.2870 n         1 MOL     -0.486346
     20 C7          5.1930    4.0180    1.5370 c3        1 MOL      0.354857
     21 C8          3.7030    4.0090    2.0580 c         1 MOL      0.496068
     22 O5          2.9780    4.8860    1.7770 o         1 MOL     -0.510352
     23 C9          6.1700    4.7260    2.5620 c3        1 MOL     -0.458909
     24 H8          5.4720    5.8070    0.3270 hn        1 MOL      0.286919
     25 H9          5.6530    3.0490    1.3730 h1        1 MOL      0.053184
     26 H10         7.1880    4.7600    2.1860 hc        1 MOL      0.109810
     27 H11         5.7590    5.7240    2.7200 hc        1 MOL      0.109810
     28 H12         6.1070    4.1610    3.4950 hc        1 MOL      0.109810
     29 N3          3.3370    3.1050    3.0220 n         1 MOL     -0.366549
     30 C10         4.0390    1.9930    3.6270 c3        1 MOL     -0.035166
     31 C11         4.2490    0.8720    2.6100 c         1 MOL      0.125304
     32 O6          3.4360    0.6760    1.6540 o         1 MOL     -0.402355
     33 C12         3.1600    1.4790    4.8040 c3        1 MOL     -0.342758
     34 C13         1.6500    1.5050    4.4700 c         1 MOL      0.748138
     35 O7          0.9640    2.4060    4.9400 o         1 MOL     -0.675147
     36 O8          1.1350    0.6530    3.7160 o         1 MOL     -0.675147
     37 H13         2.3900    3.1960    3.3780 hn        1 MOL      0.246774
     38 H14         4.9800    2.2570    4.1120 h1        1 MOL      0.118656
     39 H15         3.2370    2.2500    5.5730 hc        1 MOL      0.085329
     40 H16         3.4150    0.4460    5.0370 hc        1 MOL      0.085329
     41 N4          5.2550    0.0050    2.8290 n         1 MOL     -0.132966
     42 C14         5.6520   -1.1120    1.9380 c3        1 MOL     -0.041872
     43 C15         6.8540   -0.7700    1.1190 c         1 MOL      0.647346
     44 O9          7.4360    0.3010    1.1710 o         1 MOL     -0.558255
     45 H17         5.9120    0.2940    3.5430 hn        1 MOL      0.195634
     46 H18         4.8990   -1.3880    1.2160 h1        1 MOL      0.037547
     47 H19         5.8630   -1.9430    2.6160 h1        1 MOL      0.037547
     48 N5          7.2550   -1.6510    0.2890 n         1 MOL     -0.497811
     49 C16         6.8780   -3.0630    0.1610 c3        1 MOL     -0.053224
     50 C17         6.1690   -3.3720   -1.2310 c         1 MOL      0.641088
     51 O10         6.2740   -4.4890   -1.6530 o         1 MOL     -0.535558
     52 C18         8.2550   -3.7990    0.4010 c3        1 MOL     -0.235209
     53 C19         9.0990   -3.9440   -0.8690 c         1 MOL      0.685663
     54 N6          9.6030   -5.1020   -1.2260 n         1 MOL     -0.805334
     55 O11         9.2330   -2.9280   -1.6040 o         1 MOL     -0.541956
     56 H20         8.0540   -1.4310   -0.2870 hn        1 MOL      0.303287
     57 H21         6.1820   -3.4090    0.9280 h1        1 MOL      0.144296
     58 H22         8.0760   -4.8180    0.7440 hc        1 MOL      0.076857
     59 H23         8.7760   -3.2660    1.1950 hc        1 MOL      0.076857
     60 H24         9.4260   -5.9730   -0.7460 hn        1 MOL      0.374031
     61 H25         9.9250   -5.2160   -2.1780 hn        1 MOL      0.374031
     62 N7          5.4980   -2.3610   -1.8140 n         1 MOL     -0.429229
     63 C20         4.7930   -2.5620   -3.1120 c3        1 MOL     -0.014186
     64 C21         3.4430   -3.3690   -2.9710 c         1 MOL      0.388725
     65 O12         2.9660   -3.9700   -3.9780 o         1 MOL     -0.518970
     66 H26         5.6100   -1.4800   -1.3510 hn        1 MOL      0.299997
     67 H27         5.4680   -2.9430   -3.8790 h1        1 MOL      0.098256
     68 H28         4.4840   -1.6120   -3.5570 h1        1 MOL      0.098256
     69 N8          2.8710   -3.4810   -1.7620 n         1 MOL     -0.237438
     70 C22         1.7160   -4.3450   -1.3660 c3        1 MOL     -0.036890
     71 C23         0.4370   -3.5560   -0.9630 c         1 MOL      0.476575
     72 O13         0.5360   -2.5260   -0.2370 o         1 MOL     -0.563585
     73 C24         2.0510   -5.3010   -0.1710 c3        1 MOL      0.424239
     74 C25         2.7210   -6.5500   -0.7360 c3        1 MOL     -0.426802
     75 O14         3.0530   -4.9080    0.7310 oh        1 MOL     -0.747106
     76 H29         3.3330   -3.0510   -0.9760 hn        1 MOL      0.187095
     77 H30         1.3480   -4.9380   -2.2100 h1        1 MOL      0.106584
     78 H31         1.1140   -5.6170    0.2930 h1        1 MOL      0.034223
     79 H32         3.1430   -5.5230    1.4600 ho        1 MOL      0.464213
     80 H33         1.9580   -6.8980   -1.4310 hc        1 MOL      0.099730
     81 H34         3.6440   -6.3740   -1.2940 hc        1 MOL      0.099730
     82 H35         2.9430   -7.3080    0.0270 hc        1 MOL      0.099730
     83 N9         -0.7340   -4.0010   -1.2930 n         1 MOL     -0.337998
     84 C26        -2.0030   -3.3180   -1.0680 c3        1 MOL     -0.361785
     85 C27        -2.5150   -3.5450    0.3720 c         1 MOL      0.569825
     86 O15        -2.2800   -4.6280    0.9030 o         1 MOL     -0.536076
     87 C28        -2.9240   -3.7550   -2.2160 c3        1 MOL      0.358433
     88 C29        -4.3740   -3.1230   -2.1010 c3        1 MOL     -0.016065
     89 C30        -2.3470   -3.3330   -3.5940 c3        1 MOL     -0.487244
     90 C31        -5.4060   -3.8010   -2.9960 c3        1 MOL     -0.312957
     91 H36        -0.7650   -4.8790   -1.7870 hn        1 MOL      0.262833
     92 H37        -1.8090   -2.2530   -1.1420 h1        1 MOL      0.307866
     93 H38        -3.0150   -4.8420   -2.1700 hc        1 MOL     -0.020606
     94 H39        -4.2610   -2.0650   -2.3660 hc        1 MOL      0.040620
     95 H40        -4.6240   -3.2770   -1.0560 hc        1 MOL      0.040620
     96 H41        -1.4030   -3.8650   -3.7190 hc        1 MOL      0.111727
     97 H42        -3.0340   -3.6750   -4.3680 hc        1 MOL      0.111727
     98 H43        -2.3030   -2.2530   -3.6310 hc        1 MOL      0.111727
     99 H44        -6.3860   -3.5610   -2.5910 hc        1 MOL      0.067885
    100 H45        -5.3240   -3.4410   -4.0220 hc        1 MOL      0.067885
    101 H46        -5.1970   -4.8650   -2.8940 hc        1 MOL      0.067885
    102 N10        -3.1500   -2.5490    0.9410 n         1 MOL     -0.423013
    103 C32        -3.8320   -2.5750    2.3420 c3        1 MOL      0.020306
    104 C33        -5.2080   -1.8540    2.4520 c         1 MOL      0.407772
    105 O16        -5.8730   -2.1110    3.4630 o         1 MOL     -0.533308
    106 C34        -2.7600   -2.0000    3.3950 c3        1 MOL     -0.098464
    107 C35        -1.3730   -2.4960    3.3120 c         1 MOL      0.757781
    108 O17        -1.1110   -3.5740    3.8550 o         1 MOL     -0.726761
    109 O18        -0.4530   -1.6920    2.8930 o         1 MOL     -0.726761
    110 H47        -3.1280   -1.6400    0.5080 hn        1 MOL      0.266757
    111 H48        -3.9740   -3.6150    2.6220 h1        1 MOL      0.103655
    112 H49        -3.1390   -2.1570    4.3980 hc        1 MOL      0.045933
    113 H50        -2.6760   -0.9220    3.2570 hc        1 MOL      0.045933
    114 N11        -5.5960   -1.2640    1.3470 n         1 MOL     -0.383522
    115 C36        -6.9370   -0.5990    1.1380 c3        1 MOL      0.551784
    116 C37        -6.8850    0.8820    0.6200 c         1 MOL      0.067388
    117 O19        -7.5370    1.2710   -0.4040 o         1 MOL     -0.404983
    118 C38        -7.9130   -1.4460    0.2580 c3        1 MOL     -0.383709
    119 C39        -9.3830   -0.9280    0.1640 ca        1 MOL      0.067187
    120 C40       -10.0160   -0.3100    1.2800 ca        1 MOL     -0.095669
    121 C41       -10.0130   -1.0400   -1.0700 ca        1 MOL     -0.095669
    122 C42       -11.3470    0.0710    1.0890 ca        1 MOL     -0.173560
    123 C43       -11.3140   -0.5310   -1.2510 ca        1 MOL     -0.173560
    124 C44       -11.9960    0.0120   -0.1590 ca        1 MOL     -0.072214
    125 H51        -4.9030   -1.2890    0.6100 hn        1 MOL      0.139122
    126 H52        -7.4320   -0.7260    2.0990 h1        1 MOL     -0.015443
    127 H53        -7.9230   -2.4450    0.7100 hc        1 MOL      0.114408
    128 H54        -7.5050   -1.3510   -0.7500 hc        1 MOL      0.114408
    129 H55        -9.5050   -0.3250    2.2360 ha        1 MOL      0.111672
    130 H56        -9.6770   -1.6240   -1.9140 ha        1 MOL      0.111672
    131 H57       -11.8780    0.4810    1.9270 ha        1 MOL      0.110218
    132 H58       -11.8550   -0.6340   -2.1880 ha        1 MOL      0.110218
    133 H59       -13.0260    0.3150   -0.2180 ha        1 MOL      0.089051
    134 N12        -6.0140    1.6410    1.3230 n         1 MOL      0.030090
    135 C45        -5.7670    3.0100    1.0010 c3        1 MOL     -0.066919
    136 C46        -5.3410    3.3150   -0.4630 c         1 MOL      0.165341
    137 O20        -5.4620    4.4650   -0.9200 o         1 MOL     -0.460796
    138 C47        -4.6630    3.4550    1.9910 c3        1 MOL     -0.031057
    139 C48        -4.8820    2.5830    3.1560 c3        1 MOL     -0.009340
    140 C49        -5.3060    1.3110    2.5310 c3        1 MOL     -0.118455
    141 H60        -6.6400    3.6190    1.2410 h1        1 MOL      0.099387
    142 H61        -3.6850    3.1930    1.5830 hc        1 MOL      0.046329
    143 H62        -4.7740    4.4970    2.3040 hc        1 MOL      0.046329
    144 H63        -4.0220    2.5910    3.8240 hc        1 MOL      0.040865
    145 H64        -5.7890    2.8930    3.6640 hc        1 MOL      0.040865
    146 H65        -4.4620    0.6620    2.3010 h1        1 MOL      0.066160
    147 H66        -6.0530    0.8690    3.1990 h1        1 MOL      0.066160
    148 N13        -4.8400    2.2740   -1.1510 n         1 MOL      0.012834
    149 C50        -4.3390    2.4330   -2.5230 c3        1 MOL     -0.237827
    150 C51        -5.5330    2.5650   -3.4780 c         1 MOL      0.525425
    151 O21        -5.4160    3.3910   -4.3960 o         1 MOL     -0.551338
    152 C52        -3.5450    1.1940   -2.9400 c3        1 MOL      0.042427
    153 C53        -2.2290    1.0380   -2.3280 c3        1 MOL      0.018887
    154 C54        -2.2080    0.3070   -0.9490 c         1 MOL      0.448635
    155 O22        -1.1600    0.1470   -0.3200 o         1 MOL     -0.699139
    156 O23        -3.2850   -0.1790   -0.5490 o         1 MOL     -0.699139
    157 H67        -4.7920    1.3530   -0.7350 hn        1 MOL      0.305116
    158 H68        -3.6710    3.2940   -2.5690 h1        1 MOL      0.141683
    159 H69        -3.3240    1.3210   -4.0000 hc        1 MOL     -0.003546
    160 H70        -4.1250    0.3140   -2.6840 hc        1 MOL     -0.003546
    161 H71        -1.7840    2.0320   -2.2610 hc        1 MOL      0.022121
    162 H72        -1.5740    0.4820   -3.0010 hc        1 MOL      0.022121
    163 N14        -6.6740    1.8350   -3.3930 n         1 MOL     -0.260418
    164 C55        -7.8310    2.0290   -4.1960 c3        1 MOL     -0.236577
    165 H73        -8.6490    2.3880   -3.5730 h1        1 MOL      0.100354
    166 H74        -7.6170    2.7640   -4.9720 h1        1 MOL      0.100354
    167 H75        -8.1140    1.0830   -4.6580 h1        1 MOL      0.100354
    168 H76        -6.6860    1.0930   -2.7030 hn        1 MOL      0.239994
    169 Ca1         0.9530   -0.1400    1.2100 Ca        1 MOL      1.662199
    170 O24         2.4590   -0.3870   -1.1540 oh        1 MOL     -0.773454
    171 H77         2.4820   -1.2180   -1.6220 ho        1 MOL      0.382581
    172 H78         3.2580    0.0640   -1.4490 ho        1 MOL      0.382581
    173 O25         2.4580   -2.3730    1.8620 oh        1 MOL     -0.773454
    174 H79         2.3570   -3.1770    1.3600 ho        1 MOL      0.382581
    175 H80         2.2520   -2.6190    2.7620 ho        1 MOL      0.382581
    176 O26        -1.6340    1.1870    2.0550 oh        1 MOL     -0.773454
    177 H81        -1.7770    0.6290    1.2920 ho        1 MOL      0.382581
    178 H82        -1.5600    2.0670    1.6990 ho        1 MOL      0.382581
    179 O27         0.8050    2.3940    0.3480 oh        1 MOL     -0.773454
    180 H83         1.1110    3.0740   -0.2570 ho        1 MOL      0.382581
    181 H84         0.0380    2.7760    0.7590 ho        1 MOL      0.382581
@<TRIPOS>BOND
     1    1    2 1   
     2    1    4 1   
     3    1    5 1   
     4    1    6 1   
     5    2    3 2   
     6    2    7 1   
     7    7    8 1   
     8    7   15 1   
     9    8    9 1   
    10    8   11 1   
    11    8   16 1   
    12    9   10 2   
    13    9   19 1   
    14   11   12 1   
    15   11   17 1   
    16   11   18 1   
    17   12   13 1   
    18   12   14 1   
    19   19   20 1   
    20   19   24 1   
    21   20   21 1   
    22   20   23 1   
    23   20   25 1   
    24   21   22 2   
    25   21   29 1   
    26   23   26 1   
    27   23   27 1   
    28   23   28 1   
    29   29   30 1   
    30   29   37 1   
    31   30   31 1   
    32   30   33 1   
    33   30   38 1   
    34   31   32 2   
    35   31   41 1   
    36   33   34 1   
    37   33   39 1   
    38   33   40 1   
    39   34   35 1   
    40   34   36 1   
    41   41   42 1   
    42   41   45 1   
    43   42   43 1   
    44   42   46 1   
    45   42   47 1   
    46   43   44 2   
    47   43   48 1   
    48   48   49 1   
    49   48   56 1   
    50   49   50 1   
    51   49   52 1   
    52   49   57 1   
    53   50   51 2   
    54   50   62 1   
    55   52   53 1   
    56   52   58 1   
    57   52   59 1   
    58   53   54 1   
    59   53   55 2   
    60   54   60 1   
    61   54   61 1   
    62   62   63 1   
    63   62   66 1   
    64   63   64 1   
    65   63   67 1   
    66   63   68 1   
    67   64   65 2   
    68   64   69 1   
    69   69   70 1   
    70   69   76 1   
    71   70   71 1   
    72   70   73 1   
    73   70   77 1   
    74   71   72 2   
    75   71   83 1   
    76   73   74 1   
    77   73   75 1   
    78   73   78 1   
    79   74   80 1   
    80   74   81 1   
    81   74   82 1   
    82   75   79 1   
    83   83   84 1   
    84   83   91 1   
    85   84   85 1   
    86   84   87 1   
    87   84   92 1   
    88   85   86 2   
    89   85  102 1   
    90   87   88 1   
    91   87   89 1   
    92   87   93 1   
    93   88   90 1   
    94   88   94 1   
    95   88   95 1   
    96   89   96 1   
    97   89   97 1   
    98   89   98 1   
    99   90   99 1   
   100   90  100 1   
   101   90  101 1   
   102  102  103 1   
   103  102  110 1   
   104  103  104 1   
   105  103  106 1   
   106  103  111 1   
   107  104  105 2   
   108  104  114 1   
   109  106  107 1   
   110  106  112 1   
   111  106  113 1   
   112  107  108 1   
   113  107  109 1   
   114  114  115 1   
   115  114  125 1   
   116  115  116 1   
   117  115  118 1   
   118  115  126 1   
   119  116  117 2   
   120  116  134 1   
   121  118  119 1   
   122  118  127 1   
   123  118  128 1   
   124  119  120 ar  
   125  119  121 ar  
   126  120  122 ar  
   127  120  129 1   
   128  121  123 ar  
   129  121  130 1   
   130  122  124 ar  
   131  122  131 1   
   132  123  124 ar  
   133  123  132 1   
   134  124  133 1   
   135  134  135 1   
   136  134  140 1   
   137  135  136 1   
   138  135  138 1   
   139  135  141 1   
   140  136  137 2   
   141  136  148 1   
   142  138  139 1   
   143  138  142 1   
   144  138  143 1   
   145  139  140 1   
   146  139  144 1   
   147  139  145 1   
   148  140  146 1   
   149  140  147 1   
   150  148  149 1   
   151  148  157 1   
   152  149  150 1   
   153  149  152 1   
   154  149  158 1   
   155  150  151 2   
   156  150  163 1   
   157  152  153 1   
   158  152  159 1   
   159  152  160 1   
   160  153  154 1   
   161  153  161 1   
   162  153  162 1   
   163  154  155 1   
   164  154  156 1   
   165  163  164 1   
   166  163  168 1   
   167  164  165 1   
   168  164  166 1   
   169  164  167 1   
   170  170  171 1   
   171  170  172 1   
   172  173  174 1   
   173  173  175 1   
   174  176  177 1   
   175  176  178 1   
   176  179  180 1   
   177  179  181 1   
@<TRIPOS>SUBSTRUCTURE
     1 MOL         1 TEMP              0 ****  ****    0 ROOT
