@<TRIPOS>MOLECULE
MOL
  181   177     1     0     0
SMALL
resp


@<TRIPOS>ATOM
      1 C1          1.6870    6.3090   -1.6560 c3        1 MOL     -0.405981
      2 C2          3.1030    6.3770   -1.0880 c         1 MOL      0.734311
      3 O1          3.1940    6.8680    0.0350 o         1 MOL     -0.614058
      4 H1          1.0030    6.8390   -0.9920 hc        1 MOL      0.104308
      5 H2          1.6680    6.7740   -2.6420 hc        1 MOL      0.104308
      6 H3          1.3770    5.2680   -1.7390 hc        1 MOL      0.104308
      7 N1          4.2020    5.8230   -1.6420 n         1 MOL     -0.711037
      8 C3          5.5910    5.9440   -1.0120 c3        1 MOL      0.445577
      9 C4          5.9050    4.8910    0.0690 c         1 MOL      0.429102
     10 O2          6.9190    4.2520    0.0210 o         1 MOL     -0.425988
     11 C5          6.5670    5.9800   -2.1820 c3        1 MOL     -0.217622
     12 C6          8.0260    6.3040   -1.8590 c         1 MOL      0.684212
     13 O3          8.2160    7.3690   -1.1930 o         1 MOL     -0.726459
     14 O4          8.8920    5.4310   -2.1400 o         1 MOL     -0.726459
     15 H4          4.0600    5.2560   -2.4650 hn        1 MOL      0.317309
     16 H5          5.6290    6.9330   -0.5700 h1        1 MOL      0.002945
     17 H6          6.2340    6.7840   -2.8390 hc        1 MOL     -0.003717
     18 H7          6.5070    5.0270   -2.7180 hc        1 MOL     -0.003717
     19 N2          5.0490    4.7450    1.0900 n         1 MOL     -0.697597
     20 C7          5.1160    3.6400    2.0930 c3        1 MOL      0.652929
     21 C8          3.7990    2.8930    2.2280 c         1 MOL      0.305585
     22 O5          2.7560    3.4230    1.8780 o         1 MOL     -0.512895
     23 C9          5.7130    4.2770    3.3310 c3        1 MOL     -0.259877
     24 H8          4.2540    5.3740    1.0720 hn        1 MOL      0.316072
     25 H9          5.9360    2.9970    1.7660 h1        1 MOL     -0.051807
     26 H10         6.6970    4.7380    3.2000 hc        1 MOL      0.048697
     27 H11         4.9230    4.8830    3.7820 hc        1 MOL      0.048697
     28 H12         5.7810    3.4370    4.0240 hc        1 MOL      0.048697
     29 N3          3.7820    1.7110    2.8360 n         1 MOL     -0.286166
     30 C10         4.8850    0.7780    3.1660 c3        1 MOL     -0.278526
     31 C11         5.3080   -0.1930    1.9970 c         1 MOL      0.641357
     32 O6          4.8080   -0.0270    0.8940 o         1 MOL     -0.488041
     33 C12         4.4370   -0.1140    4.3420 c3        1 MOL     -0.227119
     34 C13         3.1980   -0.9510    4.0940 c         1 MOL      0.732045
     35 O7          2.1600   -0.5950    3.4810 o         1 MOL     -0.691645
     36 O8          3.1010   -2.0630    4.6640 o         1 MOL     -0.691645
     37 H13         2.8710    1.2790    2.9460 hn        1 MOL      0.260471
     38 H14         5.7780    1.3370    3.4350 h1        1 MOL      0.166221
     39 H15         4.2510    0.4940    5.2270 hc        1 MOL      0.070601
     40 H16         5.2960   -0.7600    4.5540 hc        1 MOL      0.070601
     41 N4          6.1860   -1.1730    2.2270 n         1 MOL     -0.499904
     42 C14         6.7740   -2.0610    1.2990 c3        1 MOL     -0.253823
     43 C15         7.9470   -1.3530    0.6000 c         1 MOL      0.687584
     44 O9          8.5810   -0.4920    1.2570 o         1 MOL     -0.540806
     45 H17         6.4780   -1.2890    3.1880 hn        1 MOL      0.357380
     46 H18         6.0760   -2.3720    0.5260 h1        1 MOL      0.130629
     47 H19         6.9380   -2.9810    1.8580 h1        1 MOL      0.130629
     48 N5          8.3910   -1.8290   -0.5660 n         1 MOL     -0.639034
     49 C16         7.8110   -2.8730   -1.3740 c3        1 MOL      0.282361
     50 C17         6.5170   -2.4550   -2.0210 c         1 MOL      0.535665
     51 O10         6.4110   -1.4120   -2.5970 o         1 MOL     -0.519493
     52 C18         8.8470   -3.4140   -2.4110 c3        1 MOL     -0.423852
     53 C19         8.3060   -4.6040   -3.2500 c         1 MOL      0.728171
     54 N6          9.0400   -4.9930   -4.2210 n         1 MOL     -0.792169
     55 O11         7.2790   -5.2290   -2.9620 o         1 MOL     -0.571744
     56 H20         9.2770   -1.5410   -0.9350 hn        1 MOL      0.355610
     57 H21         7.5390   -3.7230   -0.7410 h1        1 MOL     -0.015817
     58 H22         9.6990   -3.7560   -1.8290 hc        1 MOL      0.123352
     59 H23         9.1650   -2.5960   -3.0420 hc        1 MOL      0.123352
     60 H24         9.9830   -4.6430   -4.3630 hn        1 MOL      0.369320
     61 H25         8.6620   -5.7030   -4.8360 hn        1 MOL      0.369320
     62 N7          5.4100   -3.1740   -1.7690 n         1 MOL     -0.255655
     63 C20         4.0200   -2.8370   -2.1300 c3        1 MOL     -0.357738
     64 C21         2.9860   -4.0100   -2.0000 c         1 MOL      0.693898
     65 O12         3.3140   -5.2230   -2.1810 o         1 MOL     -0.550549
     66 H26         5.6070   -3.9980   -1.2280 hn        1 MOL      0.219243
     67 H27         3.9750   -2.4140   -3.1380 h1        1 MOL      0.155861
     68 H28         3.7530   -1.9570   -1.5360 h1        1 MOL      0.155861
     69 N8          1.7410   -3.6660   -1.5520 n         1 MOL     -0.589885
     70 C22         0.5680   -4.5720   -1.3400 c3        1 MOL     -0.012730
     71 C23        -0.6600   -3.7260   -0.8590 c         1 MOL      0.507866
     72 O13        -0.4900   -2.8270   -0.0180 o         1 MOL     -0.541943
     73 C24         0.8590   -5.6590   -0.2700 c3        1 MOL      0.361984
     74 C25        -0.3400   -6.0430    0.5850 c3        1 MOL     -0.211784
     75 O14         1.3370   -6.7900   -0.9670 oh        1 MOL     -0.665149
     76 H29         1.4380   -2.7180   -1.3710 hn        1 MOL      0.363161
     77 H30         0.2660   -5.0440   -2.2740 h1        1 MOL      0.064157
     78 H31         1.5800   -5.2790    0.4570 h1        1 MOL     -0.026277
     79 H32         2.1280   -6.4960   -1.4260 ho        1 MOL      0.411867
     80 H33        -1.1590   -6.3360   -0.0840 hc        1 MOL      0.075729
     81 H34        -0.0750   -6.8990    1.2160 hc        1 MOL      0.075729
     82 H35        -0.6890   -5.2060    1.1870 hc        1 MOL      0.075729
     83 N9         -1.7920   -3.9520   -1.5750 n         1 MOL     -0.489543
     84 C26        -3.0350   -3.2420   -1.3010 c3        1 MOL     -0.123316
     85 C27        -3.5020   -3.5410    0.1370 c         1 MOL      0.366254
     86 O15        -3.6760   -4.7220    0.4670 o         1 MOL     -0.512590
     87 C28        -4.0410   -3.4280   -2.4350 c3        1 MOL      0.155693
     88 C29        -5.3040   -2.5250   -2.1990 c3        1 MOL      0.057563
     89 C30        -3.4520   -3.1940   -3.7680 c3        1 MOL     -0.202028
     90 C31        -6.4880   -2.6740   -3.2070 c3        1 MOL     -0.052615
     91 H36        -1.8570   -4.8340   -2.0720 hn        1 MOL      0.352200
     92 H37        -2.7960   -2.1750   -1.2400 h1        1 MOL      0.222750
     93 H38        -4.3570   -4.4680   -2.4700 hc        1 MOL      0.002124
     94 H39        -4.9200   -1.5060   -2.2580 hc        1 MOL     -0.063084
     95 H40        -5.7380   -2.6340   -1.1970 hc        1 MOL     -0.063084
     96 H41        -3.0980   -2.1640   -3.7830 hc        1 MOL      0.038175
     97 H42        -2.6020   -3.8440   -3.9550 hc        1 MOL      0.038175
     98 H43        -4.2070   -3.2870   -4.5470 hc        1 MOL      0.038175
     99 H44        -7.1780   -1.8400   -3.2020 hc        1 MOL      0.011361
    100 H45        -6.2130   -2.7380   -4.2650 hc        1 MOL      0.011361
    101 H46        -7.1140   -3.5520   -3.0780 hc        1 MOL      0.011361
    102 N10        -3.9060   -2.4640    0.8430 n         1 MOL     -0.067217
    103 C32        -4.8080   -2.4570    1.9750 c3        1 MOL      0.212746
    104 C33        -6.0560   -1.5320    1.8820 c         1 MOL      0.306272
    105 O16        -6.9690   -1.6760    2.7040 o         1 MOL     -0.524855
    106 C34        -4.0660   -2.1570    3.2580 c3        1 MOL     -0.057152
    107 C35        -2.7700   -2.8930    3.4540 c         1 MOL      0.626974
    108 O17        -2.7570   -4.0880    3.7980 o         1 MOL     -0.684842
    109 O18        -1.7210   -2.2970    3.1850 o         1 MOL     -0.684842
    110 H47        -3.5180   -1.5990    0.4970 hn        1 MOL      0.041301
    111 H48        -5.2160   -3.4750    2.0160 h1        1 MOL      0.036266
    112 H49        -4.8220   -2.4430    3.9910 hc        1 MOL     -0.010325
    113 H50        -3.8960   -1.0770    3.3400 hc        1 MOL     -0.010325
    114 N11        -6.1470   -0.7950    0.7790 n         1 MOL     -0.311539
    115 C36        -7.1500    0.2160    0.5390 c3        1 MOL      0.262335
    116 C37        -6.5400    1.5160   -0.0020 c         1 MOL      0.323270
    117 O19        -6.9590    1.9380   -1.0890 o         1 MOL     -0.461566
    118 C38        -8.3040   -0.3440   -0.3520 c3        1 MOL     -0.236152
    119 C39        -9.5930    0.4590   -0.2890 ca        1 MOL      0.075803
    120 C40       -10.1670    0.6760    0.9510 ca        1 MOL     -0.123395
    121 C41       -10.1300    1.1590   -1.3910 ca        1 MOL     -0.123395
    122 C42       -11.2560    1.5230    1.2060 ca        1 MOL     -0.149376
    123 C43       -11.2480    1.9290   -1.2450 ca        1 MOL     -0.149376
    124 C44       -11.7210    2.1750    0.0730 ca        1 MOL     -0.089183
    125 H51        -5.3530   -0.8080    0.1630 hn        1 MOL      0.300276
    126 H52        -7.5280    0.5000    1.5190 h1        1 MOL      0.018735
    127 H53        -8.5880   -1.3460   -0.0120 hc        1 MOL      0.091364
    128 H54        -7.9940   -0.5670   -1.3710 hc        1 MOL      0.091364
    129 H55        -9.7260    0.3490    1.8750 ha        1 MOL      0.107296
    130 H56        -9.6020    1.1840   -2.3300 ha        1 MOL      0.107296
    131 H57       -11.7250    1.8200    2.1360 ha        1 MOL      0.115139
    132 H58       -11.7290    2.3660   -2.1150 ha        1 MOL      0.115139
    133 H59       -12.4850    2.9310    0.1410 ha        1 MOL      0.073822
    134 N12        -5.6920    2.2540    0.7060 n         1 MOL     -0.043959
    135 C45        -5.3640    3.7000    0.4120 c3        1 MOL     -0.025715
    136 C46        -4.6650    3.8980   -0.8760 c         1 MOL      0.317458
    137 O20        -4.8410    4.9460   -1.5240 o         1 MOL     -0.513006
    138 C47        -4.3870    4.1720    1.5750 c3        1 MOL     -0.079946
    139 C48        -4.0210    2.9340    2.3380 c3        1 MOL     -0.088344
    140 C49        -5.2410    2.0110    2.0570 c3        1 MOL      0.052416
    141 H60        -6.2750    4.2900    0.4590 h1        1 MOL      0.081089
    142 H61        -3.5230    4.6740    1.1440 hc        1 MOL      0.053689
    143 H62        -4.8980    4.8870    2.2190 hc        1 MOL      0.053689
    144 H63        -3.1220    2.4410    1.9650 hc        1 MOL      0.054037
    145 H64        -3.8210    3.1530    3.3880 hc        1 MOL      0.054037
    146 H65        -4.9830    0.9950    2.3500 h1        1 MOL      0.016278
    147 H66        -6.0670    2.2190    2.7260 h1        1 MOL      0.016278
    148 N13        -3.9230    2.8840   -1.3100 n         1 MOL     -0.017092
    149 C50        -3.1980    2.6970   -2.5610 c3        1 MOL     -0.187488
    150 C51        -4.1460    2.6270   -3.7870 c         1 MOL      0.521974
    151 O21        -3.9040    3.2540   -4.8230 o         1 MOL     -0.568951
    152 C52        -2.2880    1.4640   -2.4880 c3        1 MOL      0.153198
    153 C53        -1.6980    1.0610   -1.1410 c3        1 MOL     -0.160633
    154 C54        -2.5390    0.4390   -0.0710 c         1 MOL      0.588095
    155 O22        -1.9750    0.0320    0.9230 o         1 MOL     -0.657181
    156 O23        -3.7790    0.1920   -0.2710 o         1 MOL     -0.657181
    157 H67        -3.9930    2.0600   -0.7380 hn        1 MOL      0.075431
    158 H68        -2.5770    3.5750   -2.7710 h1        1 MOL      0.096430
    159 H69        -1.5110    1.5920   -3.2400 hc        1 MOL     -0.029666
    160 H70        -2.9460    0.6670   -2.8410 hc        1 MOL     -0.029666
    161 H71        -1.2000    1.9640   -0.7720 hc        1 MOL      0.054104
    162 H72        -0.9180    0.3510   -1.4100 hc        1 MOL      0.054104
    163 N14        -5.3090    2.0310   -3.6380 n         1 MOL     -0.176737
    164 C55        -6.4890    1.9680   -4.5620 c3        1 MOL     -0.181809
    165 H73        -7.3490    2.4370   -4.0830 h1        1 MOL      0.086541
    166 H74        -6.2560    2.4960   -5.4860 h1        1 MOL      0.086541
    167 H75        -6.7210    0.9270   -4.7860 h1        1 MOL      0.086541
    168 H76        -5.6130    1.8690   -2.6880 hn        1 MOL      0.167188
    169 Ca1         0.1410   -1.0560    2.0210 Ca        1 MOL      1.748811
    170 O24         0.9120    1.4150    1.4440 oh        1 MOL     -0.879466
    171 H77         0.2810    2.0020    1.8490 ho        1 MOL      0.417802
    172 H78         1.7230    1.9190    1.4090 ho        1 MOL      0.417802
    173 O25         2.4020   -1.5360    0.5050 oh        1 MOL     -0.879466
    174 H79         2.9650   -0.8100    0.2430 ho        1 MOL      0.417802
    175 H80         2.9800   -2.1350    0.9770 ho        1 MOL      0.417802
    176 O26         1.1880   -3.2590    3.0230 oh        1 MOL     -0.879466
    177 H81         2.0270   -3.2050    3.4770 ho        1 MOL      0.417802
    178 H82         0.9300   -4.1810    3.0980 ho        1 MOL      0.417802
    179 O27        -0.6470    0.5950    4.1930 oh        1 MOL     -0.879466
    180 H83        -1.4070    0.4420    4.7560 ho        1 MOL      0.417802
    181 H84        -0.2180    1.3610    4.5670 ho        1 MOL      0.417802
@<TRIPOS>BOND
     1    1    2 1   
     2    1    4 1   
     3    1    5 1   
     4    1    6 1   
     5    2    3 2   
     6    2    7 1   
     7    7    8 1   
     8    7   15 1   
     9    8    9 1   
    10    8   11 1   
    11    8   16 1   
    12    9   10 2   
    13    9   19 1   
    14   11   12 1   
    15   11   17 1   
    16   11   18 1   
    17   12   13 1   
    18   12   14 1   
    19   19   20 1   
    20   19   24 1   
    21   20   21 1   
    22   20   23 1   
    23   20   25 1   
    24   21   22 2   
    25   21   29 1   
    26   23   26 1   
    27   23   27 1   
    28   23   28 1   
    29   29   30 1   
    30   29   37 1   
    31   30   31 1   
    32   30   33 1   
    33   30   38 1   
    34   31   32 2   
    35   31   41 1   
    36   33   34 1   
    37   33   39 1   
    38   33   40 1   
    39   34   35 1   
    40   34   36 1   
    41   41   42 1   
    42   41   45 1   
    43   42   43 1   
    44   42   46 1   
    45   42   47 1   
    46   43   44 2   
    47   43   48 1   
    48   48   49 1   
    49   48   56 1   
    50   49   50 1   
    51   49   52 1   
    52   49   57 1   
    53   50   51 2   
    54   50   62 1   
    55   52   53 1   
    56   52   58 1   
    57   52   59 1   
    58   53   54 1   
    59   53   55 2   
    60   54   60 1   
    61   54   61 1   
    62   62   63 1   
    63   62   66 1   
    64   63   64 1   
    65   63   67 1   
    66   63   68 1   
    67   64   65 2   
    68   64   69 1   
    69   69   70 1   
    70   69   76 1   
    71   70   71 1   
    72   70   73 1   
    73   70   77 1   
    74   71   72 2   
    75   71   83 1   
    76   73   74 1   
    77   73   75 1   
    78   73   78 1   
    79   74   80 1   
    80   74   81 1   
    81   74   82 1   
    82   75   79 1   
    83   83   84 1   
    84   83   91 1   
    85   84   85 1   
    86   84   87 1   
    87   84   92 1   
    88   85   86 2   
    89   85  102 1   
    90   87   88 1   
    91   87   89 1   
    92   87   93 1   
    93   88   90 1   
    94   88   94 1   
    95   88   95 1   
    96   89   96 1   
    97   89   97 1   
    98   89   98 1   
    99   90   99 1   
   100   90  100 1   
   101   90  101 1   
   102  102  103 1   
   103  102  110 1   
   104  103  104 1   
   105  103  106 1   
   106  103  111 1   
   107  104  105 2   
   108  104  114 1   
   109  106  107 1   
   110  106  112 1   
   111  106  113 1   
   112  107  108 1   
   113  107  109 1   
   114  114  115 1   
   115  114  125 1   
   116  115  116 1   
   117  115  118 1   
   118  115  126 1   
   119  116  117 2   
   120  116  134 1   
   121  118  119 1   
   122  118  127 1   
   123  118  128 1   
   124  119  120 ar  
   125  119  121 ar  
   126  120  122 ar  
   127  120  129 1   
   128  121  123 ar  
   129  121  130 1   
   130  122  124 ar  
   131  122  131 1   
   132  123  124 ar  
   133  123  132 1   
   134  124  133 1   
   135  134  135 1   
   136  134  140 1   
   137  135  136 1   
   138  135  138 1   
   139  135  141 1   
   140  136  137 2   
   141  136  148 1   
   142  138  139 1   
   143  138  142 1   
   144  138  143 1   
   145  139  140 1   
   146  139  144 1   
   147  139  145 1   
   148  140  146 1   
   149  140  147 1   
   150  148  149 1   
   151  148  157 1   
   152  149  150 1   
   153  149  152 1   
   154  149  158 1   
   155  150  151 2   
   156  150  163 1   
   157  152  153 1   
   158  152  159 1   
   159  152  160 1   
   160  153  154 1   
   161  153  161 1   
   162  153  162 1   
   163  154  155 1   
   164  154  156 1   
   165  163  164 1   
   166  163  168 1   
   167  164  165 1   
   168  164  166 1   
   169  164  167 1   
   170  170  171 1   
   171  170  172 1   
   172  173  174 1   
   173  173  175 1   
   174  176  177 1   
   175  176  178 1   
   176  179  180 1   
   177  179  181 1   
@<TRIPOS>SUBSTRUCTURE
     1 MOL         1 TEMP              0 ****  ****    0 ROOT
