@<TRIPOS>MOLECULE
MOL
  192   187     1     0     0
SMALL
resp


@<TRIPOS>ATOM
      1 C1         -5.1850    6.5080    0.3490 c3        1 MOL     -0.233957
      2 C2         -4.6840    5.0630    0.4830 c         1 MOL      0.655515
      3 O1         -4.0750    4.5980    1.4770 o         1 MOL     -0.592231
      4 H1         -5.4340    6.7100   -0.6930 hc        1 MOL      0.054874
      5 H2         -6.0730    6.6430    0.9680 hc        1 MOL      0.054874
      6 H3         -4.4050    7.1950    0.6760 hc        1 MOL      0.054874
      7 N1         -5.1820    4.2320   -0.4200 n         1 MOL     -0.373304
      8 C3         -5.0160    2.7390   -0.4460 c3        1 MOL      0.102375
      9 C4         -3.5510    2.2990   -0.3680 c         1 MOL      0.046861
     10 O2         -3.3140    1.0240   -0.3320 o         1 MOL     -0.261219
     11 C5         -5.8330    2.1040   -1.6620 c3        1 MOL     -0.083581
     12 C6         -7.1410    2.7910   -2.0140 c         1 MOL      0.688710
     13 O3         -8.1180    1.9980   -2.0240 o         1 MOL     -0.698432
     14 O4         -7.2260    3.9960   -2.3120 o         1 MOL     -0.698432
     15 H4         -5.6550    4.6140   -1.2240 hn        1 MOL      0.204185
     16 H5         -5.5630    2.4900    0.4640 h1        1 MOL      0.115081
     17 H6         -6.0210    1.0550   -1.4310 hc        1 MOL     -0.013316
     18 H7         -5.1620    2.1500   -2.5210 hc        1 MOL     -0.013316
     19 N2         -2.5920    3.2020   -0.4380 n         1 MOL      0.097132
     20 C7         -1.2150    2.8310   -0.6600 c3        1 MOL     -0.228191
     21 C8         -0.4860    2.8350    0.6880 c         1 MOL      0.482535
     22 O5         -0.5130    3.8620    1.4160 o         1 MOL     -0.544246
     23 C9         -0.5300    3.8480   -1.5690 c3        1 MOL     -0.036103
     24 C10        -1.1110    3.7960   -2.9310 c3        1 MOL      0.433804
     25 C11        -0.6420    4.9280   -3.9090 c3        1 MOL     -0.161402
     26 C12        -1.6330    4.9070   -5.0950 c3        1 MOL      0.059556
     27 N3         -1.3540    5.9790   -5.9950 n4        1 MOL     -0.162469
     28 H8         -2.8560    4.1580   -0.2460 hn        1 MOL      0.128214
     29 H9         -1.0940    1.8670   -1.1510 h1        1 MOL      0.072013
     30 H10         0.5410    3.6530   -1.6340 hc        1 MOL      0.011040
     31 H11        -0.6150    4.8640   -1.1750 hc        1 MOL      0.011040
     32 H12        -2.1430    4.0650   -2.7290 hc        1 MOL     -0.114449
     33 H13        -0.9280    2.8330   -3.3970 hc        1 MOL     -0.114449
     34 H14         0.4230    4.7870   -4.0700 hc        1 MOL      0.039826
     35 H15        -0.7210    5.8380   -3.3100 hc        1 MOL      0.039826
     36 H16        -2.6090    5.2000   -4.6850 hx        1 MOL      0.063373
     37 H17        -1.6820    3.9760   -5.6710 hx        1 MOL      0.063373
     38 H18        -1.1910    6.8270   -5.4540 hn        1 MOL      0.276321
     39 H19        -0.4320    5.7660   -6.3520 hn        1 MOL      0.276321
     40 H20        -1.9480    6.0020   -6.8050 hn        1 MOL      0.276321
     41 N4          0.2990    1.8330    1.1140 n         1 MOL      0.075941
     42 C13         0.8480    0.6460    0.4360 c3        1 MOL     -0.123428
     43 C14         1.3140    0.9180   -0.9580 c         1 MOL      0.845780
     44 O6          0.8340    0.3910   -1.9590 o         1 MOL     -0.636754
     45 C15         0.0370   -0.6920    0.5510 c3        1 MOL     -0.271817
     46 C16         0.0420   -1.2920    1.9750 c         1 MOL      0.688141
     47 O7         -0.4010   -2.4730    2.1320 o         1 MOL     -0.669589
     48 O8          0.4770   -0.5980    2.9590 o         1 MOL     -0.669589
     49 H21         0.8540    2.0090    1.9370 hn        1 MOL      0.027680
     50 H22         1.8160    0.3540    0.8500 h1        1 MOL     -0.033795
     51 H23         0.4050   -1.5430   -0.0230 hc        1 MOL      0.088226
     52 H24        -0.9960   -0.4720    0.2950 hc        1 MOL      0.088226
     53 N5          2.2740    1.8030   -1.2210 n         1 MOL     -0.472311
     54 C17         3.1230    2.6370   -0.3800 c3        1 MOL      0.106467
     55 C18         4.3270    3.3320   -1.1760 c         1 MOL      0.483555
     56 O9          4.1180    3.8090   -2.3040 o         1 MOL     -0.551518
     57 H25         2.3900    1.9420   -2.2180 hn        1 MOL      0.242125
     58 H26         3.5890    1.9710    0.3460 h1        1 MOL      0.020833
     59 H27         2.5050    3.3720    0.1350 h1        1 MOL      0.020833
     60 N6          5.5920    3.3910   -0.7720 n         1 MOL     -0.426225
     61 C19         6.0980    3.1230    0.5780 c3        1 MOL      0.203586
     62 C20         7.0770    1.9570    0.5540 c         1 MOL      0.407030
     63 O10         7.9570    1.8570   -0.3330 o         1 MOL     -0.455133
     64 C21         6.7020    4.4570    1.2030 c3        1 MOL     -0.225511
     65 C22         7.7060    5.2300    0.2480 c         1 MOL      0.728026
     66 O11         7.9080    4.9150   -0.9570 o         1 MOL     -0.642721
     67 O12         8.3100    6.2310    0.6660 o         1 MOL     -0.642721
     68 H28         6.2260    3.5880   -1.5330 hn        1 MOL      0.318603
     69 H29         5.2760    2.7790    1.2060 h1        1 MOL     -0.043024
     70 H30         7.1780    4.2200    2.1620 hc        1 MOL      0.033202
     71 H31         5.9690    5.2220    1.4510 hc        1 MOL      0.033202
     72 N7          7.0880    1.0390    1.5750 n         1 MOL     -0.224608
     73 C23         7.9750   -0.1340    1.5580 c3        1 MOL     -0.133418
     74 C24         7.2110   -1.3390    0.9430 c         1 MOL      0.585364
     75 O13         7.4880   -1.7580   -0.1670 o         1 MOL     -0.528940
     76 H32         6.4480    1.2330    2.3230 hn        1 MOL      0.133664
     77 H33         8.4140   -0.3750    2.5300 h1        1 MOL      0.102186
     78 H34         8.8450    0.0590    0.9290 h1        1 MOL      0.102186
     79 N8          6.1420   -1.8090    1.6470 n         1 MOL     -0.524344
     80 C25         5.1950   -2.6870    0.9720 c3        1 MOL      0.031466
     81 C26         4.4110   -1.8250   -0.0330 c         1 MOL      0.398984
     82 O14         3.9270   -0.7440    0.3320 o         1 MOL     -0.577991
     83 C27         4.2420   -3.5420    1.8000 c3        1 MOL      0.468701
     84 C28         4.8550   -4.4360    2.8560 c3        1 MOL     -0.281699
     85 O15         3.5020   -4.3590    0.9740 oh        1 MOL     -0.670016
     86 H35         5.9240   -1.4110    2.5480 hn        1 MOL      0.242126
     87 H36         5.7650   -3.4140    0.3810 h1        1 MOL      0.103920
     88 H37         3.5770   -2.8220    2.2660 h1        1 MOL     -0.010429
     89 H38         2.6550   -4.4790    1.4140 ho        1 MOL      0.404598
     90 H39         5.3480   -5.2220    2.2660 hc        1 MOL      0.059429
     91 H40         5.6380   -3.8520    3.3240 hc        1 MOL      0.059429
     92 H41         4.1410   -4.8260    3.5700 hc        1 MOL      0.059429
     93 N9          4.2030   -2.3560   -1.2020 n         1 MOL     -0.219594
     94 C29         3.6380   -1.7170   -2.4200 c3        1 MOL      0.051816
     95 C30         2.4270   -2.3820   -2.9860 c         1 MOL      0.218362
     96 O16         1.9330   -1.9400   -3.9620 o         1 MOL     -0.481678
     97 C31         4.7580   -1.4430   -3.4750 c3        1 MOL      0.137865
     98 C32         5.5390   -2.7390   -3.9130 c3        1 MOL      0.034792
     99 C33         5.8050   -0.5090   -2.8960 c3        1 MOL     -0.286050
    100 C34         4.7390   -3.6220   -4.9070 c3        1 MOL     -0.195777
    101 H42         4.5810   -3.2610   -1.4470 hn        1 MOL      0.250399
    102 H43         3.3120   -0.7680   -1.9730 h1        1 MOL      0.076017
    103 H44         4.2620   -0.9480   -4.3150 hc        1 MOL      0.035717
    104 H45         5.8940   -3.2500   -3.0250 hc        1 MOL      0.004375
    105 H46         6.4300   -2.3760   -4.4250 hc        1 MOL      0.004375
    106 H47         6.5870   -0.3500   -3.6410 hc        1 MOL      0.086561
    107 H48         5.3200    0.4430   -2.7030 hc        1 MOL      0.086561
    108 H49         6.2080   -0.9190   -1.9600 hc        1 MOL      0.086561
    109 H50         4.4740   -3.0480   -5.7900 hc        1 MOL      0.049990
    110 H51         5.3550   -4.4760   -5.1860 hc        1 MOL      0.049990
    111 H52         3.8490   -4.0900   -4.4890 hc        1 MOL      0.049990
    112 N10         1.9420   -3.4870   -2.4570 n         1 MOL     -0.093202
    113 C35         0.9760   -4.3930   -3.0710 c3        1 MOL     -0.166886
    114 C36        -0.5010   -3.7890   -3.1640 c         1 MOL      0.358941
    115 O17        -1.4630   -4.4800   -3.5060 o         1 MOL     -0.523421
    116 C37         0.9090   -5.7730   -2.2730 c3        1 MOL      0.273856
    117 C38         0.1260   -5.6620   -0.9080 c3        1 MOL     -0.070521
    118 O18         2.1550   -6.3610   -2.0740 oh        1 MOL     -0.648599
    119 H53         2.4770   -3.8790   -1.6900 hn        1 MOL      0.163514
    120 H54         1.2660   -4.5310   -4.1140 h1        1 MOL      0.138579
    121 H55         0.3350   -6.5000   -2.8600 h1        1 MOL      0.017225
    122 H56         2.1340   -7.3000   -1.8450 ho        1 MOL      0.418215
    123 H57         0.2630   -6.5730   -0.3260 hc        1 MOL      0.028655
    124 H58         0.3180   -4.7250   -0.3770 hc        1 MOL      0.028655
    125 H59        -0.9470   -5.7650   -1.0410 hc        1 MOL      0.028655
    126 N11        -0.7170   -2.5080   -2.7540 n         1 MOL     -0.037392
    127 C39        -2.0120   -1.8930   -2.4610 c3        1 MOL      0.115171
    128 C40        -2.8530   -2.5660   -1.3370 c         1 MOL      0.206141
    129 O19        -2.5860   -3.6430   -0.8960 o         1 MOL     -0.447214
    130 C41        -2.8110   -1.4540   -3.7120 c3        1 MOL      0.262196
    131 C42        -1.8560   -0.6900   -4.6280 c3        1 MOL     -0.416599
    132 O20        -3.9340   -0.5870   -3.5210 oh        1 MOL     -0.633955
    133 H60         0.0770   -1.9100   -2.6270 hn        1 MOL      0.153047
    134 H61        -1.7460   -1.0110   -1.8860 h1        1 MOL      0.020119
    135 H62        -3.0770   -2.3730   -4.2390 h1        1 MOL      0.016484
    136 H63        -4.5290   -0.6760   -4.2770 ho        1 MOL      0.416361
    137 H64        -1.5150    0.1740   -4.0570 hc        1 MOL      0.108156
    138 H65        -0.9640   -1.2720   -4.8800 hc        1 MOL      0.108156
    139 H66        -2.4650   -0.3980   -5.4900 hc        1 MOL      0.108156
    140 N12        -3.8660   -1.8200   -0.8550 n         1 MOL     -0.069568
    141 C43        -4.8860   -2.3620    0.0960 c3        1 MOL      0.058099
    142 C44        -4.6800   -1.8420    1.6020 c         1 MOL      0.457702
    143 O21        -5.2480   -2.4470    2.5530 o         1 MOL     -0.619908
    144 C45        -6.2690   -1.9690   -0.3220 c3        1 MOL     -0.043242
    145 C46        -6.7560   -2.6280   -1.6040 c3        1 MOL      0.157451
    146 C47        -6.7560   -4.1580   -1.6340 c3        1 MOL     -0.194222
    147 C48        -7.8040   -4.6900   -0.6350 c3        1 MOL      0.022172
    148 N13        -9.2080   -4.4110   -1.0590 n4        1 MOL     -0.343185
    149 H67        -3.8540   -0.8340   -1.0650 hn        1 MOL      0.151095
    150 H68        -4.6580   -3.4220    0.1750 h1        1 MOL      0.070532
    151 H69        -6.3420   -0.9060   -0.5370 hc        1 MOL      0.030696
    152 H70        -6.9690   -2.2680    0.4640 hc        1 MOL      0.030696
    153 H71        -6.1100   -2.3530   -2.4310 hc        1 MOL     -0.038466
    154 H72        -7.7190   -2.2250   -1.9050 hc        1 MOL     -0.038466
    155 H73        -5.8360   -4.5280   -1.1660 hc        1 MOL      0.095096
    156 H74        -6.8870   -4.5380   -2.6490 hc        1 MOL      0.095096
    157 H75        -7.6780   -4.2180    0.3360 hx        1 MOL      0.077970
    158 H76        -7.6060   -5.7660   -0.6510 hx        1 MOL      0.077970
    159 H77        -9.4380   -3.4830   -0.7440 hn        1 MOL      0.322466
    160 H78        -9.3620   -4.5110   -2.0520 hn        1 MOL      0.322466
    161 H79        -9.8120   -5.0640   -0.5770 hn        1 MOL      0.322466
    162 N14        -3.8890   -0.7680    1.7820 n         1 MOL     -0.249752
    163 C49        -3.8080   -0.0760    3.0050 c3        1 MOL      0.169647
    164 C50        -5.1530    0.6640    3.2870 c         1 MOL      0.200494
    165 O22        -5.4490    1.7860    2.8380 o         1 MOL     -0.450248
    166 C51        -2.6790    0.9010    3.0550 c3        1 MOL      0.289039
    167 C52        -2.3750    1.4510    4.4210 c3        1 MOL     -0.417224
    168 C53        -2.0420    0.4600    5.4640 c         1 MOL      0.409680
    169 O23        -2.8490    0.1900    6.3490 o         1 MOL     -0.616047
    170 O24        -0.8940   -0.0250    5.3430 o         1 MOL     -0.616047
    171 H80        -3.5550   -0.3200    0.9370 hn        1 MOL      0.048234
    172 H81        -3.6360   -0.7660    3.8260 h1        1 MOL      0.146179
    173 H82        -2.8660    1.7690    2.4380 hc        1 MOL     -0.070909
    174 H83        -1.8130    0.4950    2.5320 hc        1 MOL     -0.070909
    175 H84        -3.3090    1.8760    4.7800 hc        1 MOL      0.133686
    176 H85        -1.5950    2.1950    4.2420 hc        1 MOL      0.133686
    177 N15        -5.7630    0.2860    4.4090 n         1 MOL     -0.166415
    178 C54        -6.9250    0.9900    5.0620 c3        1 MOL     -0.121962
    179 H86        -7.4310    1.6150    4.3260 h1        1 MOL      0.077663
    180 H87        -7.6250    0.2500    5.4520 h1        1 MOL      0.077663
    181 H88        -6.5610    1.6130    5.8790 h1        1 MOL      0.077663
    182 H89        -5.4030   -0.5560    4.8220 hn        1 MOL      0.233869
    183 Ca1         1.6130   -0.1790    5.2390 Ca        1 MOL      1.619939
    184 O25         1.5290   -2.8520    4.9340 oh        1 MOL     -0.915402
    185 H90         1.1590   -3.3830    5.6440 ho        1 MOL      0.444048
    186 H91         1.7120   -3.4840    4.2320 ho        1 MOL      0.444048
    187 O26         3.3090   -0.5790    3.1810 oh        1 MOL     -0.915402
    188 H92         4.1700   -0.1650    3.2590 ho        1 MOL      0.444048
    189 H93         3.1640   -0.6690    2.2490 ho        1 MOL      0.444048
    190 O27         2.5590   -1.2950    7.3680 oh        1 MOL     -0.915402
    191 H94         3.4980   -1.2450    7.5270 ho        1 MOL      0.444048
    192 H95         2.2190   -1.7970    8.1140 ho        1 MOL      0.444048
@<TRIPOS>BOND
     1    1    2 1   
     2    1    4 1   
     3    1    5 1   
     4    1    6 1   
     5    2    3 2   
     6    2    7 1   
     7    7    8 1   
     8    7   15 1   
     9    8    9 1   
    10    8   11 1   
    11    8   16 1   
    12    9   10 2   
    13    9   19 1   
    14   11   12 1   
    15   11   17 1   
    16   11   18 1   
    17   12   13 1   
    18   12   14 1   
    19   19   20 1   
    20   19   28 1   
    21   20   21 1   
    22   20   23 1   
    23   20   29 1   
    24   21   22 2   
    25   21   41 1   
    26   23   24 1   
    27   23   30 1   
    28   23   31 1   
    29   24   25 1   
    30   24   32 1   
    31   24   33 1   
    32   25   26 1   
    33   25   34 1   
    34   25   35 1   
    35   26   27 1   
    36   26   36 1   
    37   26   37 1   
    38   27   38 1   
    39   27   39 1   
    40   27   40 1   
    41   41   42 1   
    42   41   49 1   
    43   42   43 1   
    44   42   45 1   
    45   42   50 1   
    46   43   44 2   
    47   43   53 1   
    48   45   46 1   
    49   45   51 1   
    50   45   52 1   
    51   46   47 1   
    52   46   48 1   
    53   53   54 1   
    54   53   57 1   
    55   54   55 1   
    56   54   58 1   
    57   54   59 1   
    58   55   56 2   
    59   55   60 1   
    60   60   61 1   
    61   60   68 1   
    62   61   62 1   
    63   61   64 1   
    64   61   69 1   
    65   62   63 2   
    66   62   72 1   
    67   64   65 1   
    68   64   70 1   
    69   64   71 1   
    70   65   66 1   
    71   65   67 1   
    72   72   73 1   
    73   72   76 1   
    74   73   74 1   
    75   73   77 1   
    76   73   78 1   
    77   74   75 2   
    78   74   79 1   
    79   79   80 1   
    80   79   86 1   
    81   80   81 1   
    82   80   83 1   
    83   80   87 1   
    84   81   82 2   
    85   81   93 1   
    86   83   84 1   
    87   83   85 1   
    88   83   88 1   
    89   84   90 1   
    90   84   91 1   
    91   84   92 1   
    92   85   89 1   
    93   93   94 1   
    94   93  101 1   
    95   94   95 1   
    96   94   97 1   
    97   94  102 1   
    98   95   96 2   
    99   95  112 1   
   100   97   98 1   
   101   97   99 1   
   102   97  103 1   
   103   98  100 1   
   104   98  104 1   
   105   98  105 1   
   106   99  106 1   
   107   99  107 1   
   108   99  108 1   
   109  100  109 1   
   110  100  110 1   
   111  100  111 1   
   112  112  113 1   
   113  112  119 1   
   114  113  114 1   
   115  113  116 1   
   116  113  120 1   
   117  114  115 2   
   118  114  126 1   
   119  116  117 1   
   120  116  118 1   
   121  116  121 1   
   122  117  123 1   
   123  117  124 1   
   124  117  125 1   
   125  118  122 1   
   126  126  127 1   
   127  126  133 1   
   128  127  128 1   
   129  127  130 1   
   130  127  134 1   
   131  128  129 2   
   132  128  140 1   
   133  130  131 1   
   134  130  132 1   
   135  130  135 1   
   136  131  137 1   
   137  131  138 1   
   138  131  139 1   
   139  132  136 1   
   140  140  141 1   
   141  140  149 1   
   142  141  142 1   
   143  141  144 1   
   144  141  150 1   
   145  142  143 2   
   146  142  162 1   
   147  144  145 1   
   148  144  151 1   
   149  144  152 1   
   150  145  146 1   
   151  145  153 1   
   152  145  154 1   
   153  146  147 1   
   154  146  155 1   
   155  146  156 1   
   156  147  148 1   
   157  147  157 1   
   158  147  158 1   
   159  148  159 1   
   160  148  160 1   
   161  148  161 1   
   162  162  163 1   
   163  162  171 1   
   164  163  164 1   
   165  163  166 1   
   166  163  172 1   
   167  164  165 2   
   168  164  177 1   
   169  166  167 1   
   170  166  173 1   
   171  166  174 1   
   172  167  168 1   
   173  167  175 1   
   174  167  176 1   
   175  168  169 1   
   176  168  170 1   
   177  177  178 1   
   178  177  182 1   
   179  178  179 1   
   180  178  180 1   
   181  178  181 1   
   182  184  185 1   
   183  184  186 1   
   184  187  188 1   
   185  187  189 1   
   186  190  191 1   
   187  190  192 1   
@<TRIPOS>SUBSTRUCTURE
     1 MOL         1 TEMP              0 ****  ****    0 ROOT
