@<TRIPOS>MOLECULE
MOL
  192   187     1     0     0
SMALL
resp


@<TRIPOS>ATOM
      1 C1          1.7670    8.1590   -2.1490 c3        1 MOL     -0.272358
      2 C2          1.8450    6.6290   -2.2300 c         1 MOL      0.680692
      3 O1          1.5450    6.1320   -3.3060 o         1 MOL     -0.592321
      4 H1          1.1220    8.5320   -2.9440 hc        1 MOL      0.069528
      5 H2          1.3560    8.4510   -1.1830 hc        1 MOL      0.069528
      6 H3          2.7660    8.5810   -2.2640 hc        1 MOL      0.069528
      7 N1          2.3080    5.8620   -1.2100 n         1 MOL     -0.528962
      8 C3          2.4740    4.3930   -1.0680 c3        1 MOL      0.107670
      9 C4          1.1960    3.6590   -0.6760 c         1 MOL      0.391655
     10 O2          1.0790    2.4740   -0.8690 o         1 MOL     -0.384486
     11 C5          3.5510    4.0390   -0.0230 c3        1 MOL     -0.396352
     12 C6          3.7220    4.9180    1.2730 c         1 MOL      0.717798
     13 O3          4.3820    4.3930    2.1990 o         1 MOL     -0.709244
     14 O4          3.4580    6.1300    1.2120 o         1 MOL     -0.709244
     15 H4          2.6310    6.3620   -0.3930 hn        1 MOL      0.313384
     16 H5          2.7790    3.9790   -2.0260 h1        1 MOL      0.061299
     17 H6          4.5340    4.1090   -0.4920 hc        1 MOL      0.168488
     18 H7          3.3660    3.0100    0.2640 hc        1 MOL      0.168488
     19 N2          0.2860    4.3490    0.0710 n         1 MOL     -0.472748
     20 C7         -1.0530    3.8670    0.4980 c3        1 MOL      0.328819
     21 C8         -1.8390    3.5490   -0.7370 c         1 MOL      0.326584
     22 O5         -1.9300    4.4040   -1.6070 o         1 MOL     -0.518509
     23 C9         -1.8720    4.7660    1.4040 c3        1 MOL     -0.054722
     24 C10        -1.0680    5.5070    2.5070 c3        1 MOL     -0.112588
     25 C11        -0.3510    4.5150    3.4170 c3        1 MOL     -0.023852
     26 C12         0.3220    5.2590    4.6080 c3        1 MOL      0.099745
     27 N3          0.8790    4.4470    5.6930 n4        1 MOL     -0.371960
     28 H8          0.4420    5.3460    0.1130 hn        1 MOL      0.237941
     29 H9         -0.9320    2.9330    1.0470 h1        1 MOL      0.056879
     30 H10        -2.6730    4.1920    1.8710 hc        1 MOL      0.057155
     31 H11        -2.2790    5.5600    0.7810 hc        1 MOL      0.057155
     32 H12        -1.6950    6.1740    3.0900 hc        1 MOL      0.050134
     33 H13        -0.3240    6.1220    2.0060 hc        1 MOL      0.050134
     34 H14         0.3570    3.9000    2.8590 hc        1 MOL      0.021378
     35 H15        -1.1720    3.8840    3.7620 hc        1 MOL      0.021378
     36 H16        -0.3680    5.9830    5.0530 hx        1 MOL      0.062667
     37 H17         1.1700    5.8300    4.2120 hx        1 MOL      0.062667
     38 H18         1.6300    3.8930    5.2950 hn        1 MOL      0.317291
     39 H19         1.3020    4.9470    6.4560 hn        1 MOL      0.317291
     40 H20         0.1070    3.8910    6.0470 hn        1 MOL      0.317291
     41 N4         -2.5250    2.4120   -0.9300 n         1 MOL     -0.466220
     42 C13        -2.7180    1.1810   -0.0790 c3        1 MOL      0.103499
     43 C14        -3.0410    1.5890    1.3440 c         1 MOL      0.476497
     44 O6         -2.1470    1.4660    2.1380 o         1 MOL     -0.614204
     45 C15        -1.5990    0.1610   -0.2850 c3        1 MOL     -0.178169
     46 C16        -1.2620   -0.1710   -1.7210 c         1 MOL      0.623302
     47 O7         -0.3020   -0.9390   -1.9590 o         1 MOL     -0.647385
     48 O8         -2.0240    0.1670   -2.6310 o         1 MOL     -0.647385
     49 H21        -3.0060    2.3720   -1.8210 hn        1 MOL      0.302663
     50 H22        -3.6010    0.7160   -0.5180 h1        1 MOL      0.035381
     51 H23        -1.8790   -0.7870    0.1680 hc        1 MOL      0.056785
     52 H24        -0.6850    0.5970    0.1230 hc        1 MOL      0.056785
     53 N5         -4.2520    2.0080    1.7700 n         1 MOL     -0.337337
     54 C17        -5.4470    2.1230    0.8710 c3        1 MOL     -0.127023
     55 C18        -6.6030    2.9740    1.3980 c         1 MOL      0.560970
     56 O9         -6.5000    3.7990    2.3020 o         1 MOL     -0.571882
     57 H25        -4.3540    1.9120    2.7710 hn        1 MOL      0.314497
     58 H26        -5.9000    1.1390    0.7310 h1        1 MOL      0.109651
     59 H27        -5.1600    2.5260   -0.1010 h1        1 MOL      0.109651
     60 N6         -7.8620    2.9140    0.8260 n         1 MOL     -0.370658
     61 C19        -8.2060    2.1030   -0.2930 c3        1 MOL     -0.141622
     62 C20        -8.3380    0.6090    0.0890 c         1 MOL      0.571079
     63 O10        -8.8790    0.2420    1.1440 o         1 MOL     -0.495779
     64 C21        -9.5170    2.5420   -0.9510 c3        1 MOL     -0.054542
     65 C22       -10.7110    2.4440   -0.0930 c         1 MOL      0.668026
     66 O11       -10.8110    3.3190    0.8050 o         1 MOL     -0.647041
     67 O12       -11.6700    1.6360   -0.4540 o         1 MOL     -0.647041
     68 H28        -8.5750    3.4330    1.3110 hn        1 MOL      0.298372
     69 H29        -7.4290    2.1860   -1.0550 h1        1 MOL      0.039323
     70 H30        -9.7340    1.8530   -1.7640 hc        1 MOL      0.007368
     71 H31        -9.4270    3.5870   -1.2670 hc        1 MOL      0.007368
     72 N7         -7.8440   -0.2890   -0.7560 n         1 MOL     -0.323440
     73 C23        -7.9060   -1.7380   -0.5350 c3        1 MOL     -0.309489
     74 C24        -6.6730   -2.3230    0.1650 c         1 MOL      0.564167
     75 O13        -6.1380   -1.7350    1.0960 o         1 MOL     -0.466248
     76 H32        -7.4180    0.0240   -1.6270 hn        1 MOL      0.256592
     77 H33        -7.9840   -2.2610   -1.4930 h1        1 MOL      0.153555
     78 H34        -8.7650   -1.9220    0.1090 h1        1 MOL      0.153555
     79 N8         -6.3270   -3.5770   -0.1870 n         1 MOL     -0.524586
     80 C25        -5.2840   -4.3460    0.5810 c3        1 MOL      0.135568
     81 C26        -3.8750   -3.7350    0.5130 c         1 MOL      0.376137
     82 O14        -3.6180   -2.8030   -0.1910 o         1 MOL     -0.439413
     83 C27        -5.3150   -5.8500    0.0590 c3        1 MOL      0.259915
     84 C28        -4.7780   -6.0640   -1.3480 c3        1 MOL     -0.192244
     85 O15        -6.6530   -6.1930    0.0040 oh        1 MOL     -0.614390
     86 H35        -6.7430   -3.9520   -1.0330 hn        1 MOL      0.322499
     87 H36        -5.5420   -4.4540    1.6390 h1        1 MOL      0.082807
     88 H37        -4.8450   -6.4730    0.8270 h1        1 MOL      0.008872
     89 H38        -6.6270   -7.1460   -0.1040 ho        1 MOL      0.405686
     90 H39        -5.1340   -5.3390   -2.0870 hc        1 MOL      0.047746
     91 H40        -3.6990   -6.2070   -1.3340 hc        1 MOL      0.047746
     92 H41        -5.2320   -6.9860   -1.7090 hc        1 MOL      0.047746
     93 N9         -2.9740   -4.2900    1.3740 n         1 MOL     -0.474472
     94 C29        -1.6120   -3.7430    1.6080 c3        1 MOL      0.040726
     95 C30        -0.4850   -4.6800    1.2730 c         1 MOL      0.459586
     96 O16        -0.1930   -5.6790    1.9320 o         1 MOL     -0.515093
     97 C31        -1.5880   -3.2430    3.0820 c3        1 MOL     -0.064582
     98 C32        -2.4270   -1.9280    3.1950 c3        1 MOL      0.326077
     99 C33        -0.1480   -2.7950    3.5340 c3        1 MOL     -0.103185
    100 C34        -2.5570   -1.3040    4.5710 c3        1 MOL     -0.247150
    101 H42        -3.2390   -5.0400    1.9960 hn        1 MOL      0.291564
    102 H43        -1.3940   -2.8350    1.0300 h1        1 MOL     -0.011974
    103 H44        -1.9940   -3.9370    3.8120 hc        1 MOL      0.040410
    104 H45        -3.4550   -2.1640    2.9530 hc        1 MOL     -0.023448
    105 H46        -2.0460   -1.2600    2.4200 hc        1 MOL     -0.023448
    106 H47         0.5660   -3.6080    3.4150 hc        1 MOL      0.007165
    107 H48         0.0840   -2.0430    2.7690 hc        1 MOL      0.007165
    108 H49        -0.0830   -2.3140    4.5150 hc        1 MOL      0.007165
    109 H50        -2.9190   -2.0370    5.2850 hc        1 MOL      0.046154
    110 H51        -1.6850   -0.7930    4.9840 hc        1 MOL      0.046154
    111 H52        -3.2780   -0.5000    4.3920 hc        1 MOL      0.046154
    112 N10         0.1490   -4.4620    0.1500 n         1 MOL     -0.156754
    113 C35         1.3280   -5.3190   -0.2530 c3        1 MOL     -0.435934
    114 C36         2.6270   -5.1250    0.4920 c         1 MOL      0.467347
    115 O17         3.5100   -5.9890    0.4890 o         1 MOL     -0.506243
    116 C37         1.5630   -5.3860   -1.7460 c3        1 MOL      0.414854
    117 C38         2.0290   -4.0960   -2.3570 c3        1 MOL     -0.332826
    118 O18         0.3950   -5.7670   -2.4400 oh        1 MOL     -0.639706
    119 H53        -0.0630   -3.6690   -0.4370 hn        1 MOL      0.275122
    120 H54         1.0720   -6.3540   -0.0220 h1        1 MOL      0.206404
    121 H55         2.3640   -6.1010   -1.9600 h1        1 MOL      0.066307
    122 H56        -0.2690   -5.1690   -2.0990 ho        1 MOL      0.374796
    123 H57         3.0850   -3.8710   -2.1720 hc        1 MOL      0.130270
    124 H58         1.9190   -4.1170   -3.4390 hc        1 MOL      0.130270
    125 H59         1.5420   -3.2580   -1.8740 hc        1 MOL      0.130270
    126 N11         2.8820   -3.9700    1.1140 n         1 MOL     -0.302219
    127 C39         4.1700   -3.5320    1.6780 c3        1 MOL     -0.038706
    128 C40         5.2880   -3.2910    0.6280 c         1 MOL      0.493662
    129 O19         5.2640   -3.6970   -0.5080 o         1 MOL     -0.479404
    130 C41         4.5850   -4.3150    2.8960 c3        1 MOL      0.403956
    131 C42         3.5440   -4.4680    3.9930 c3        1 MOL     -0.521084
    132 O20         5.6930   -3.7490    3.5810 oh        1 MOL     -0.664319
    133 H60         2.1970   -3.2420    0.9660 hn        1 MOL      0.235447
    134 H61         3.9570   -2.5860    2.1730 h1        1 MOL      0.041887
    135 H62         4.9180   -5.3000    2.5790 h1        1 MOL      0.063859
    136 H63         5.3510   -3.2770    4.3490 ho        1 MOL      0.379611
    137 H64         3.0550   -3.5110    4.1860 hc        1 MOL      0.142811
    138 H65         2.7180   -5.1190    3.7070 hc        1 MOL      0.142811
    139 H66         3.9230   -4.9500    4.8920 hc        1 MOL      0.142811
    140 N12         6.2310   -2.4010    0.8880 n         1 MOL     -0.171754
    141 C43         7.3650   -2.0410    0.0800 c3        1 MOL     -0.264943
    142 C44         7.1100   -1.0790   -1.1090 c         1 MOL      0.674305
    143 O21         7.9440   -0.8530   -1.9740 o         1 MOL     -0.570834
    144 C45         8.5070   -1.6030    1.0530 c3        1 MOL     -0.015511
    145 C46         7.9890   -0.2690    1.7940 c3        1 MOL      0.225679
    146 C47         9.1040    0.1910    2.7400 c3        1 MOL     -0.041887
    147 C48         8.7960    1.5750    3.3090 c3        1 MOL     -0.176450
    148 N13         7.5600    1.5380    4.1890 n4        1 MOL     -0.288740
    149 H67         6.1090   -1.9810    1.8000 hn        1 MOL      0.151028
    150 H68         7.6850   -2.9620   -0.4090 h1        1 MOL      0.160130
    151 H69         9.3660   -1.4530    0.3970 hc        1 MOL      0.038607
    152 H70         8.7970   -2.3990    1.7460 hc        1 MOL      0.038607
    153 H71         7.0880   -0.4560    2.3860 hc        1 MOL     -0.034048
    154 H72         7.8150    0.4840    1.0280 hc        1 MOL     -0.034048
    155 H73        10.0540    0.2200    2.2020 hc        1 MOL      0.015717
    156 H74         9.1710   -0.4230    3.6290 hc        1 MOL      0.015717
    157 H75         8.7190    2.3040    2.5150 hx        1 MOL      0.169312
    158 H76         9.6090    1.8940    3.9540 hx        1 MOL      0.169312
    159 H77         7.5310    0.6780    4.7330 hn        1 MOL      0.280207
    160 H78         7.6360    2.2870    4.8570 hn        1 MOL      0.280207
    161 H79         6.7670    1.6350    3.5730 hn        1 MOL      0.280207
    162 N14         5.9220   -0.4290   -1.0560 n         1 MOL     -0.296888
    163 C49         5.4520    0.5760   -2.0190 c3        1 MOL     -0.021902
    164 C50         6.2040    1.8730   -1.8070 c         1 MOL      0.326740
    165 O22         6.4220    2.2190   -0.6220 o         1 MOL     -0.534058
    166 C51         3.9780    0.8210   -1.9280 c3        1 MOL      0.774962
    167 C52         3.0960   -0.4660   -2.0070 c3        1 MOL     -0.605603
    168 C53         3.1270   -1.1960   -3.3530 c         1 MOL      0.746198
    169 O23         2.2550   -1.0550   -4.2250 o         1 MOL     -0.754359
    170 O24         4.1560   -1.8820   -3.6520 o         1 MOL     -0.754359
    171 H80         5.3240   -0.7260   -0.2900 hn        1 MOL      0.111689
    172 H81         5.7920    0.2380   -2.9960 h1        1 MOL      0.158013
    173 H82         3.7170    1.4610   -2.7800 hc        1 MOL     -0.234105
    174 H83         3.7070    1.3630   -1.0280 hc        1 MOL     -0.234105
    175 H84         2.0770   -0.1190   -1.8420 hc        1 MOL      0.083893
    176 H85         3.3890   -1.0900   -1.1600 hc        1 MOL      0.083893
    177 N15         6.7590    2.4760   -2.9110 n         1 MOL     -0.221787
    178 C54         7.6910    3.5480   -2.8080 c3        1 MOL     -0.187325
    179 H86         8.6760    3.2030   -3.1210 h1        1 MOL      0.097947
    180 H87         7.3730    4.3680   -3.4500 h1        1 MOL      0.097947
    181 H88         7.7380    3.8910   -1.7750 h1        1 MOL      0.097947
    182 H89         6.6530    2.0370   -3.8220 hn        1 MOL      0.238035
    183 Ca1        -0.2040   -0.2060   -4.5230 Ca        1 MOL      1.785671
    184 O25        -2.7210   -0.6270   -5.6650 oh        1 MOL     -0.982792
    185 H90        -3.3590    0.0240   -5.9310 ho        1 MOL      0.470985
    186 H91        -3.1470   -1.4680   -5.8450 ho        1 MOL      0.470985
    187 O26        -0.5120   -2.8070   -4.3660 oh        1 MOL     -0.982792
    188 H92         0.0780   -3.5100   -4.6290 ho        1 MOL      0.470985
    189 H93        -1.3770   -3.1280   -4.5880 ho        1 MOL      0.470985
    190 O27         0.5040    1.9670   -3.4310 oh        1 MOL     -0.982792
    191 H94         0.1150    2.8420   -3.5170 ho        1 MOL      0.470985
    192 H95         0.9150    1.9710   -2.5620 ho        1 MOL      0.470985
@<TRIPOS>BOND
     1    1    2 1   
     2    1    4 1   
     3    1    5 1   
     4    1    6 1   
     5    2    3 2   
     6    2    7 1   
     7    7    8 1   
     8    7   15 1   
     9    8    9 1   
    10    8   11 1   
    11    8   16 1   
    12    9   10 2   
    13    9   19 1   
    14   11   12 1   
    15   11   17 1   
    16   11   18 1   
    17   12   13 1   
    18   12   14 1   
    19   19   20 1   
    20   19   28 1   
    21   20   21 1   
    22   20   23 1   
    23   20   29 1   
    24   21   22 2   
    25   21   41 1   
    26   23   24 1   
    27   23   30 1   
    28   23   31 1   
    29   24   25 1   
    30   24   32 1   
    31   24   33 1   
    32   25   26 1   
    33   25   34 1   
    34   25   35 1   
    35   26   27 1   
    36   26   36 1   
    37   26   37 1   
    38   27   38 1   
    39   27   39 1   
    40   27   40 1   
    41   41   42 1   
    42   41   49 1   
    43   42   43 1   
    44   42   45 1   
    45   42   50 1   
    46   43   44 2   
    47   43   53 1   
    48   45   46 1   
    49   45   51 1   
    50   45   52 1   
    51   46   47 1   
    52   46   48 1   
    53   53   54 1   
    54   53   57 1   
    55   54   55 1   
    56   54   58 1   
    57   54   59 1   
    58   55   56 2   
    59   55   60 1   
    60   60   61 1   
    61   60   68 1   
    62   61   62 1   
    63   61   64 1   
    64   61   69 1   
    65   62   63 2   
    66   62   72 1   
    67   64   65 1   
    68   64   70 1   
    69   64   71 1   
    70   65   66 1   
    71   65   67 1   
    72   72   73 1   
    73   72   76 1   
    74   73   74 1   
    75   73   77 1   
    76   73   78 1   
    77   74   75 2   
    78   74   79 1   
    79   79   80 1   
    80   79   86 1   
    81   80   81 1   
    82   80   83 1   
    83   80   87 1   
    84   81   82 2   
    85   81   93 1   
    86   83   84 1   
    87   83   85 1   
    88   83   88 1   
    89   84   90 1   
    90   84   91 1   
    91   84   92 1   
    92   85   89 1   
    93   93   94 1   
    94   93  101 1   
    95   94   95 1   
    96   94   97 1   
    97   94  102 1   
    98   95   96 2   
    99   95  112 1   
   100   97   98 1   
   101   97   99 1   
   102   97  103 1   
   103   98  100 1   
   104   98  104 1   
   105   98  105 1   
   106   99  106 1   
   107   99  107 1   
   108   99  108 1   
   109  100  109 1   
   110  100  110 1   
   111  100  111 1   
   112  112  113 1   
   113  112  119 1   
   114  113  114 1   
   115  113  116 1   
   116  113  120 1   
   117  114  115 2   
   118  114  126 1   
   119  116  117 1   
   120  116  118 1   
   121  116  121 1   
   122  117  123 1   
   123  117  124 1   
   124  117  125 1   
   125  118  122 1   
   126  126  127 1   
   127  126  133 1   
   128  127  128 1   
   129  127  130 1   
   130  127  134 1   
   131  128  129 2   
   132  128  140 1   
   133  130  131 1   
   134  130  132 1   
   135  130  135 1   
   136  131  137 1   
   137  131  138 1   
   138  131  139 1   
   139  132  136 1   
   140  140  141 1   
   141  140  149 1   
   142  141  142 1   
   143  141  144 1   
   144  141  150 1   
   145  142  143 2   
   146  142  162 1   
   147  144  145 1   
   148  144  151 1   
   149  144  152 1   
   150  145  146 1   
   151  145  153 1   
   152  145  154 1   
   153  146  147 1   
   154  146  155 1   
   155  146  156 1   
   156  147  148 1   
   157  147  157 1   
   158  147  158 1   
   159  148  159 1   
   160  148  160 1   
   161  148  161 1   
   162  162  163 1   
   163  162  171 1   
   164  163  164 1   
   165  163  166 1   
   166  163  172 1   
   167  164  165 2   
   168  164  177 1   
   169  166  167 1   
   170  166  173 1   
   171  166  174 1   
   172  167  168 1   
   173  167  175 1   
   174  167  176 1   
   175  168  169 1   
   176  168  170 1   
   177  177  178 1   
   178  177  182 1   
   179  178  179 1   
   180  178  180 1   
   181  178  181 1   
   182  184  185 1   
   183  184  186 1   
   184  187  188 1   
   185  187  189 1   
   186  190  191 1   
   187  190  192 1   
@<TRIPOS>SUBSTRUCTURE
     1 MOL         1 TEMP              0 ****  ****    0 ROOT
