@<TRIPOS>MOLECULE
MOL
  189   185     1     0     0
SMALL
resp


@<TRIPOS>ATOM
      1 C1          4.2900    4.6250   -2.5430 c3        1 MOL     -0.285502
      2 C2          5.0280    3.5200   -1.6940 c         1 MOL      0.731368
      3 O1          4.5460    2.9310   -0.7530 o         1 MOL     -0.578759
      4 H1          3.2380    4.3590   -2.6470 hc        1 MOL      0.071197
      5 H2          4.3740    5.5880   -2.0390 hc        1 MOL      0.071197
      6 H3          4.7480    4.6890   -3.5300 hc        1 MOL      0.071197
      7 N1          6.2460    3.0930   -2.2010 n         1 MOL     -0.774739
      8 C3          6.9410    1.8800   -1.8990 c3        1 MOL      0.466175
      9 C4          6.0080    0.7010   -1.5950 c         1 MOL      0.209025
     10 O2          5.7900    0.3390   -0.4710 o         1 MOL     -0.375500
     11 C5          8.0270    2.2390   -0.8140 c3        1 MOL     -0.123942
     12 C6          7.6600    3.0560    0.4230 c         1 MOL      0.835924
     13 O3          6.7000    2.7310    1.0420 o         1 MOL     -0.762137
     14 O4          8.4330    3.9390    0.7360 o         1 MOL     -0.762137
     15 H4          6.5110    3.4470   -3.1060 hn        1 MOL      0.331555
     16 H5          7.5380    1.6410   -2.7710 h1        1 MOL     -0.029153
     17 H6          8.8060    2.7560   -1.3690 hc        1 MOL     -0.027408
     18 H7          8.2620    1.2160   -0.5100 hc        1 MOL     -0.027408
     19 N2          5.4220    0.1570   -2.6900 n         1 MOL     -0.438488
     20 C7          4.6730   -1.1340   -2.8860 c3        1 MOL      0.213942
     21 C8          5.3100   -2.4560   -2.4660 c         1 MOL      0.357749
     22 O5          5.4700   -3.3200   -3.3290 o         1 MOL     -0.548543
     23 C9          3.2110   -0.8940   -2.4650 c3        1 MOL      0.536468
     24 C10         2.3260   -2.0980   -2.7080 c3        1 MOL      0.105684
     25 C11         2.4820    0.3420   -3.0150 c3        1 MOL     -0.462322
     26 C12         2.2660   -2.4560   -4.2040 c3        1 MOL     -0.295414
     27 H8          5.5950    0.7290   -3.5070 hn        1 MOL      0.238482
     28 H9          4.5870   -1.2590   -3.9650 h1        1 MOL     -0.039610
     29 H10         3.2560   -0.7740   -1.3790 hc        1 MOL     -0.202806
     30 H11         1.3500   -1.8320   -2.3000 hc        1 MOL     -0.008417
     31 H12         2.6500   -2.9550   -2.1130 hc        1 MOL     -0.008417
     32 H13         2.9460    0.6100   -3.9670 hc        1 MOL      0.073243
     33 H14         1.3980    0.2560   -3.0150 hc        1 MOL      0.073243
     34 H15         2.7320    1.1120   -2.2770 hc        1 MOL      0.073243
     35 H16         1.5040   -3.1750   -4.4900 hc        1 MOL      0.047897
     36 H17         1.9900   -1.5300   -4.7240 hc        1 MOL      0.047897
     37 H18         3.2150   -2.8560   -4.5790 hc        1 MOL      0.047897
     38 N3          5.5200   -2.6410   -1.1770 n         1 MOL     -0.134769
     39 C13         6.3550   -3.7010   -0.5560 c3        1 MOL      0.129330
     40 C14         5.6460   -5.0010   -0.1430 c         1 MOL      0.436521
     41 O6          6.0890   -6.1110   -0.4670 o         1 MOL     -0.549087
     42 C15         7.2170   -3.1020    0.6270 c3        1 MOL     -0.268193
     43 C16         8.2580   -1.9790    0.2000 c         1 MOL      0.703462
     44 O7          8.8460   -1.3020    1.0900 o         1 MOL     -0.684132
     45 O8          8.6210   -1.8730   -1.0270 o         1 MOL     -0.684132
     46 H19         5.3970   -1.7790   -0.6690 hn        1 MOL      0.181601
     47 H20         7.1130   -3.9890   -1.2930 h1        1 MOL      0.049058
     48 H21         7.8430   -3.8930    1.0560 hc        1 MOL      0.058906
     49 H22         6.5060   -2.8290    1.4170 hc        1 MOL      0.058906
     50 N4          4.4880   -5.0230    0.6450 n         1 MOL     -0.495008
     51 C17         3.6390   -3.8850    1.1490 c3        1 MOL      0.197105
     52 C18         2.5850   -4.3150    2.1270 c         1 MOL      0.447863
     53 O9          2.3860   -5.4960    2.3200 o         1 MOL     -0.556993
     54 H23         4.1870   -5.9530    0.8990 hn        1 MOL      0.279935
     55 H24         3.2640   -3.3840    0.2560 h1        1 MOL      0.044909
     56 H25         4.3590   -3.3020    1.7380 h1        1 MOL      0.044909
     57 N5          1.8020   -3.3800    2.7240 n         1 MOL     -0.387477
     58 C19         1.9720   -1.8530    2.7830 c3        1 MOL      0.209837
     59 C20         2.1940   -1.1540    1.4520 c         1 MOL      0.078189
     60 O10         3.3220   -0.7480    1.1760 o         1 MOL     -0.624665
     61 C21         3.0980   -1.4180    3.8180 c3        1 MOL     -0.216956
     62 C22         2.8850    0.0040    4.2810 c         1 MOL      0.666741
     63 O11         2.8840    0.9220    3.4370 o         1 MOL     -0.678013
     64 O12         3.2230    0.2940    5.4690 o         1 MOL     -0.678013
     65 H26         1.0380   -3.7880    3.2420 hn        1 MOL      0.238475
     66 H27         1.0460   -1.4540    3.2010 h1        1 MOL      0.076875
     67 H28         4.0890   -1.5210    3.3760 hc        1 MOL      0.040096
     68 H29         2.9410   -2.0600    4.6750 hc        1 MOL      0.040096
     69 N6          1.2010   -0.9570    0.5670 n         1 MOL     -0.027263
     70 C23        -0.2160   -1.4430    0.7500 c3        1 MOL     -0.090709
     71 C24        -0.4510   -2.8590    0.2220 c         1 MOL      0.341335
     72 O13         0.4070   -3.5140   -0.4780 o         1 MOL     -0.460622
     73 H30         1.4620   -0.2940   -0.1370 hn        1 MOL      0.238837
     74 H31        -0.8160   -0.7780    0.1370 h1        1 MOL      0.067623
     75 H32        -0.6190   -1.4270    1.7670 h1        1 MOL      0.067623
     76 N7         -1.6740   -3.4080    0.2750 n         1 MOL     -0.355545
     77 C25        -2.2630   -4.6000   -0.4850 c3        1 MOL     -0.081178
     78 C26        -3.0320   -4.1850   -1.7290 c         1 MOL      0.328033
     79 O14        -3.5550   -5.0390   -2.4290 o         1 MOL     -0.493377
     80 C27        -3.1520   -5.3500    0.5330 c3        1 MOL      0.202315
     81 C28        -2.4260   -5.8190    1.7420 c3        1 MOL     -0.163323
     82 C29        -3.2590   -6.4390    2.8790 c         1 MOL      0.637444
     83 N8         -2.5730   -7.0360    3.8140 n         1 MOL     -0.800391
     84 O15        -4.4600   -6.2630    2.8620 o         1 MOL     -0.566714
     85 H33        -2.4160   -2.8650    0.6900 hn        1 MOL      0.255081
     86 H34        -1.6140   -5.4300   -0.7460 h1        1 MOL      0.166517
     87 H35        -3.5020   -6.2510    0.0270 hc        1 MOL     -0.037860
     88 H36        -4.0590   -4.8160    0.8360 hc        1 MOL     -0.037860
     89 H37        -2.0530   -4.9470    2.2720 hc        1 MOL      0.050604
     90 H38        -1.5950   -6.4490    1.4260 hc        1 MOL      0.050604
     91 H39        -1.5690   -7.0330    3.7190 hn        1 MOL      0.374788
     92 H40        -3.0860   -7.2570    4.6550 hn        1 MOL      0.374788
     93 N9         -3.1050   -2.9140   -2.0350 n         1 MOL     -0.116127
     94 C30        -3.4930   -2.3510   -3.3480 c3        1 MOL     -0.030228
     95 C31        -4.9820   -1.8110   -3.3680 c         1 MOL      0.472939
     96 O16        -5.6170   -1.8860   -4.3940 o         1 MOL     -0.509672
     97 C32        -2.6110   -1.1370   -3.8270 c3        1 MOL      0.009050
     98 C33        -1.3010   -1.8210   -4.3760 c3        1 MOL     -0.165919
     99 C34        -2.1030   -0.2110   -2.6780 c3        1 MOL     -0.165919
    100 H41        -2.6340   -2.2960   -1.3890 hn        1 MOL      0.149088
    101 H42        -3.3990   -3.1020   -4.1310 h1        1 MOL      0.110203
    102 H43        -3.0860   -0.5370   -4.6000 hc        1 MOL      0.058083
    103 H44        -0.6910   -0.9900   -4.7170 hc        1 MOL      0.050198
    104 H45        -0.8010   -2.3650   -3.5820 hc        1 MOL      0.050198
    105 H46        -1.6770   -2.4710   -5.1600 hc        1 MOL      0.050198
    106 H47        -1.4320   -0.7780   -2.0430 hc        1 MOL      0.050198
    107 H48        -1.6080    0.7000   -3.0350 hc        1 MOL      0.050198
    108 H49        -2.9080    0.2440   -2.1140 hc        1 MOL      0.050198
    109 N10        -5.5090   -1.3660   -2.2030 n         1 MOL     -0.290083
    110 C35        -6.8650   -0.8710   -2.1230 c3        1 MOL      0.044009
    111 C36        -6.9170    0.6040   -1.5720 c         1 MOL      0.508507
    112 O17        -7.8680    1.2910   -1.8730 o         1 MOL     -0.535425
    113 C37        -7.6380   -1.8010   -1.1580 c3        1 MOL     -0.206619
    114 C38        -7.6480   -3.2620   -1.3630 c         1 MOL      0.612470
    115 N11        -7.0630   -4.0060   -0.4490 n         1 MOL     -0.774260
    116 O18        -8.1700   -3.7710   -2.3650 o         1 MOL     -0.537029
    117 H50        -5.0410   -1.4830   -1.3170 hn        1 MOL      0.150916
    118 H51        -7.3600   -0.9820   -3.0850 h1        1 MOL      0.092271
    119 H52        -8.7010   -1.5630   -1.1710 hc        1 MOL      0.085710
    120 H53        -7.2680   -1.6010   -0.1460 hc        1 MOL      0.085710
    121 H54        -6.6520   -3.5130    0.3300 hn        1 MOL      0.368299
    122 H55        -7.1700   -5.0060   -0.3760 hn        1 MOL      0.368299
    123 N12        -5.9350    1.0450   -0.8030 n         1 MOL     -0.497846
    124 C39        -5.8920    2.4100   -0.1300 c3        1 MOL      0.389887
    125 C40        -4.5160    3.0640    0.0550 c         1 MOL      0.182628
    126 O19        -3.4770    2.4130   -0.0450 o         1 MOL     -0.422615
    127 C41        -6.4160    2.2150    1.2980 c3        1 MOL     -0.204786
    128 C42        -7.6590    1.3150    1.4970 ca        1 MOL     -0.006650
    129 C43        -7.5210    0.0090    1.9380 ca        1 MOL     -0.130652
    130 C44        -8.9290    1.8970    1.2020 ca        1 MOL     -0.130652
    131 C45        -8.7050   -0.7740    2.0690 ca        1 MOL     -0.230508
    132 C46       -10.0910    1.1020    1.2890 ca        1 MOL     -0.230508
    133 C47        -9.9670   -0.2460    1.7410 ca        1 MOL      0.314573
    134 O20       -11.0480   -1.0710    1.7290 oh        1 MOL     -0.553329
    135 H56        -5.1410    0.4650   -0.5690 hn        1 MOL      0.288071
    136 H57        -6.5150    3.1610   -0.6130 h1        1 MOL     -0.005908
    137 H58        -6.7250    3.1750    1.7310 hc        1 MOL      0.109031
    138 H59        -5.6310    1.7940    1.9150 hc        1 MOL      0.109031
    139 H60        -6.5730   -0.4640    2.1420 ha        1 MOL      0.131215
    140 H61        -9.0430    2.9360    0.9370 ha        1 MOL      0.131215
    141 H62        -8.6510   -1.8140    2.3650 ha        1 MOL      0.121936
    142 H63       -11.0570    1.5230    1.0700 ha        1 MOL      0.121936
    143 H64       -11.9150   -0.7080    1.5350 ho        1 MOL      0.406336
    144 N13        -4.5500    4.3430    0.4420 n         1 MOL     -0.437055
    145 C48        -3.3980    5.0770    1.0910 c3        1 MOL     -0.046710
    146 C49        -2.1750    5.4260    0.1840 c         1 MOL      0.385947
    147 O21        -1.5950    6.5060    0.3690 o         1 MOL     -0.534607
    148 C50        -2.9410    4.5070    2.4970 c3        1 MOL      0.446596
    149 C51        -4.0440    4.1870    3.5680 c3        1 MOL     -0.542108
    150 C52        -3.4670    4.1160    5.0010 c         1 MOL      0.809474
    151 O22        -2.2540    3.9020    5.1770 o         1 MOL     -0.743238
    152 O23        -4.1940    4.3390    6.0200 o         1 MOL     -0.743238
    153 H65        -5.4540    4.7840    0.5740 hn        1 MOL      0.310777
    154 H66        -3.8660    6.0500    1.2580 h1        1 MOL      0.048472
    155 H67        -2.2800    5.2590    2.9280 hc        1 MOL     -0.013169
    156 H68        -2.2170    3.7300    2.2820 hc        1 MOL     -0.013169
    157 H69        -4.4620    3.2050    3.3840 hc        1 MOL      0.055784
    158 H70        -4.7750    4.9910    3.6820 hc        1 MOL      0.055784
    159 N14        -1.7780    4.5530   -0.7760 n         1 MOL     -0.283938
    160 C53        -0.5640    4.8150   -1.5570 c3        1 MOL     -0.202282
    161 C54        -0.7620    5.7160   -2.8190 c         1 MOL      0.503382
    162 O24         0.1360    5.8190   -3.6570 o         1 MOL     -0.544723
    163 C55         0.1540    3.5110   -1.9110 c3        1 MOL      0.004365
    164 C56         0.3030    2.3670   -0.8160 c3        1 MOL      0.316872
    165 C57         1.2960    2.8110    0.2570 c         1 MOL      0.559227
    166 O25         2.1600    1.9780    0.6490 o         1 MOL     -0.639055
    167 O26         1.1070    3.8720    0.9030 o         1 MOL     -0.639055
    168 H71        -2.3530    3.7330   -0.8720 hn        1 MOL      0.286688
    169 H72         0.1050    5.2920   -0.8440 h1        1 MOL      0.175344
    170 H73         1.1680    3.7400   -2.2250 hc        1 MOL      0.000075
    171 H74        -0.3950    3.0850   -2.7580 hc        1 MOL      0.000075
    172 H75         0.6070    1.4210   -1.2680 hc        1 MOL     -0.126604
    173 H76        -0.6910    2.1770   -0.4050 hc        1 MOL     -0.126604
    174 N15        -1.9350    6.2880   -2.9850 n         1 MOL     -0.208195
    175 C58        -2.4510    7.0470   -4.1040 c3        1 MOL     -0.127168
    176 H77        -3.5090    6.8230   -4.2370 h1        1 MOL      0.065641
    177 H78        -2.3260    8.1120   -3.9100 h1        1 MOL      0.065641
    178 H79        -1.9070    6.7750   -5.0100 h1        1 MOL      0.065641
    179 H80        -2.6240    5.8420   -2.4010 hn        1 MOL      0.190246
    180 Ca1         4.5820    1.4400    1.5690 Ca        1 MOL      1.846102
    181 O27         6.6990    0.0330    2.4070 oh        1 MOL     -0.852424
    182 H81         7.5530   -0.0480    1.9820 ho        1 MOL      0.406564
    183 H82         6.7550   -0.5350    3.1700 ho        1 MOL      0.406564
    184 O28         5.5180    2.4120    3.8960 oh        1 MOL     -0.852424
    185 H83         5.4580    3.3650    4.0240 ho        1 MOL      0.406564
    186 H84         5.8600    2.0770    4.7290 ho        1 MOL      0.406564
    187 O29         3.7210    3.9220    2.0280 oh        1 MOL     -0.852424
    188 H85         3.1820    4.2880    1.3310 ho        1 MOL      0.406564
    189 H86         3.2660    4.1580    2.8450 ho        1 MOL      0.406564
@<TRIPOS>BOND
     1    1    2 1   
     2    1    4 1   
     3    1    5 1   
     4    1    6 1   
     5    2    3 2   
     6    2    7 1   
     7    7    8 1   
     8    7   15 1   
     9    8    9 1   
    10    8   11 1   
    11    8   16 1   
    12    9   10 2   
    13    9   19 1   
    14   11   12 1   
    15   11   17 1   
    16   11   18 1   
    17   12   13 1   
    18   12   14 1   
    19   19   20 1   
    20   19   27 1   
    21   20   21 1   
    22   20   23 1   
    23   20   28 1   
    24   21   22 2   
    25   21   38 1   
    26   23   24 1   
    27   23   25 1   
    28   23   29 1   
    29   24   26 1   
    30   24   30 1   
    31   24   31 1   
    32   25   32 1   
    33   25   33 1   
    34   25   34 1   
    35   26   35 1   
    36   26   36 1   
    37   26   37 1   
    38   38   39 1   
    39   38   46 1   
    40   39   40 1   
    41   39   42 1   
    42   39   47 1   
    43   40   41 2   
    44   40   50 1   
    45   42   43 1   
    46   42   48 1   
    47   42   49 1   
    48   43   44 1   
    49   43   45 1   
    50   50   51 1   
    51   50   54 1   
    52   51   52 1   
    53   51   55 1   
    54   51   56 1   
    55   52   53 2   
    56   52   57 1   
    57   57   58 1   
    58   57   65 1   
    59   58   59 1   
    60   58   61 1   
    61   58   66 1   
    62   59   60 2   
    63   59   69 1   
    64   61   62 1   
    65   61   67 1   
    66   61   68 1   
    67   62   63 1   
    68   62   64 1   
    69   69   70 1   
    70   69   73 1   
    71   70   71 1   
    72   70   74 1   
    73   70   75 1   
    74   71   72 2   
    75   71   76 1   
    76   76   77 1   
    77   76   85 1   
    78   77   78 1   
    79   77   80 1   
    80   77   86 1   
    81   78   79 2   
    82   78   93 1   
    83   80   81 1   
    84   80   87 1   
    85   80   88 1   
    86   81   82 1   
    87   81   89 1   
    88   81   90 1   
    89   82   83 1   
    90   82   84 2   
    91   83   91 1   
    92   83   92 1   
    93   93   94 1   
    94   93  100 1   
    95   94   95 1   
    96   94   97 1   
    97   94  101 1   
    98   95   96 2   
    99   95  109 1   
   100   97   98 1   
   101   97   99 1   
   102   97  102 1   
   103   98  103 1   
   104   98  104 1   
   105   98  105 1   
   106   99  106 1   
   107   99  107 1   
   108   99  108 1   
   109  109  110 1   
   110  109  117 1   
   111  110  111 1   
   112  110  113 1   
   113  110  118 1   
   114  111  112 2   
   115  111  123 1   
   116  113  114 1   
   117  113  119 1   
   118  113  120 1   
   119  114  115 1   
   120  114  116 2   
   121  115  121 1   
   122  115  122 1   
   123  123  124 1   
   124  123  135 1   
   125  124  125 1   
   126  124  127 1   
   127  124  136 1   
   128  125  126 2   
   129  125  144 1   
   130  127  128 1   
   131  127  137 1   
   132  127  138 1   
   133  128  129 ar  
   134  128  130 ar  
   135  129  131 ar  
   136  129  139 1   
   137  130  132 ar  
   138  130  140 1   
   139  131  133 ar  
   140  131  141 1   
   141  132  133 ar  
   142  132  142 1   
   143  133  134 1   
   144  134  143 1   
   145  144  145 1   
   146  144  153 1   
   147  145  146 1   
   148  145  148 1   
   149  145  154 1   
   150  146  147 2   
   151  146  159 1   
   152  148  149 1   
   153  148  155 1   
   154  148  156 1   
   155  149  150 1   
   156  149  157 1   
   157  149  158 1   
   158  150  151 1   
   159  150  152 1   
   160  159  160 1   
   161  159  168 1   
   162  160  161 1   
   163  160  163 1   
   164  160  169 1   
   165  161  162 2   
   166  161  174 1   
   167  163  164 1   
   168  163  170 1   
   169  163  171 1   
   170  164  165 1   
   171  164  172 1   
   172  164  173 1   
   173  165  166 1   
   174  165  167 1   
   175  174  175 1   
   176  174  179 1   
   177  175  176 1   
   178  175  177 1   
   179  175  178 1   
   180  181  182 1   
   181  181  183 1   
   182  184  185 1   
   183  184  186 1   
   184  187  188 1   
   185  187  189 1   
@<TRIPOS>SUBSTRUCTURE
     1 MOL         1 TEMP              0 ****  ****    0 ROOT
