@<TRIPOS>MOLECULE
MOL
  179   176     1     0     0
SMALL
resp


@<TRIPOS>ATOM
      1 C1          0.9080   -4.7540    5.9390 c3        1 MOL     -0.398721
      2 C2          0.8920   -4.3490    4.3730 c         1 MOL      0.725898
      3 O1         -0.1870   -4.2550    3.7360 o         1 MOL     -0.594883
      4 H1          1.8470   -4.4310    6.3880 hc        1 MOL      0.117657
      5 H2          0.0760   -4.2690    6.4500 hc        1 MOL      0.117657
      6 H3          0.8140   -5.8360    6.0360 hc        1 MOL      0.117657
      7 N1          2.0980   -4.1010    3.8780 n         1 MOL     -0.533031
      8 C3          2.4190   -3.5320    2.6000 c3        1 MOL      0.011155
      9 C4          2.6570   -4.5660    1.5240 c         1 MOL      0.604325
     10 O2          3.3150   -5.5830    1.7190 o         1 MOL     -0.537038
     11 C5          3.6050   -2.5410    2.6260 c3        1 MOL     -0.107608
     12 C6          3.7320   -1.5460    1.4160 c         1 MOL      0.561564
     13 O3          4.0810   -0.3850    1.5680 o         1 MOL     -0.657608
     14 O4          3.4170   -1.9140    0.2310 o         1 MOL     -0.657608
     15 H4          2.8300   -4.0360    4.5800 hn        1 MOL      0.314403
     16 H5          1.5900   -2.9050    2.2770 h1        1 MOL     -0.045040
     17 H6          4.5390   -3.1030    2.7240 hc        1 MOL      0.078045
     18 H7          3.5640   -1.8800    3.4850 hc        1 MOL      0.078045
     19 N2          2.0260   -4.3810    0.3400 n         1 MOL     -0.221750
     20 C7          2.1700   -5.2110   -0.8680 c3        1 MOL     -0.268057
     21 C8          3.4770   -5.0860   -1.5500 c         1 MOL      0.627746
     22 O5          3.8590   -5.9950   -2.2900 o         1 MOL     -0.582584
     23 C9          1.0550   -4.6800   -1.8620 c3        1 MOL      0.119921
     24 C10        -0.3550   -5.0790   -1.4310 c3        1 MOL     -0.262040
     25 C11        -1.3900   -4.3710   -2.1830 c3        1 MOL      0.021405
     26 C12        -2.8090   -4.7660   -1.7120 c3        1 MOL     -0.052443
     27 N3         -3.9020   -4.0850   -2.4510 n4        1 MOL     -0.393417
     28 H8          1.5980   -3.4760    0.2440 hn        1 MOL      0.216066
     29 H9          1.9960   -6.2450   -0.5920 h1        1 MOL      0.163617
     30 H10         1.1450   -5.0020   -2.8930 hc        1 MOL      0.030403
     31 H11         1.1400   -3.5890   -1.8620 hc        1 MOL      0.030403
     32 H12        -0.4210   -4.9920   -0.3430 hc        1 MOL      0.089041
     33 H13        -0.4790   -6.1370   -1.6770 hc        1 MOL      0.089041
     34 H14        -1.2720   -4.7180   -3.2090 hc        1 MOL      0.020816
     35 H15        -1.2450   -3.2940   -2.1380 hc        1 MOL      0.020816
     36 H16        -2.8850   -4.5730   -0.6430 hx        1 MOL      0.118856
     37 H17        -2.8800   -5.8410   -1.8840 hx        1 MOL      0.118856
     38 H18        -3.6680   -4.2490   -3.4230 hn        1 MOL      0.305935
     39 H19        -4.7480   -4.5430   -2.1510 hn        1 MOL      0.305935
     40 H20        -4.0080   -3.1580   -2.0650 hn        1 MOL      0.305935
     41 N4          4.2980   -4.0800   -1.2530 n         1 MOL     -0.248561
     42 C13         5.5820   -3.7520   -1.9770 c3        1 MOL     -0.016220
     43 C14         6.6630   -3.0810   -1.1550 c         1 MOL      0.388542
     44 O6          7.8490   -3.1320   -1.4860 o         1 MOL     -0.528164
     45 C15         5.2020   -2.8030   -3.1390 c3        1 MOL     -0.173686
     46 C16         4.3980   -1.6740   -2.6690 c         1 MOL      0.737959
     47 O7          3.1490   -1.7100   -2.8980 o         1 MOL     -0.786678
     48 O8          4.9700   -0.7620   -2.0020 o         1 MOL     -0.786678
     49 H21         3.9580   -3.4690   -0.5210 hn        1 MOL      0.027188
     50 H22         5.9590   -4.7010   -2.3370 h1        1 MOL      0.123202
     51 H23         4.6840   -3.4370   -3.8600 hc        1 MOL      0.070212
     52 H24         6.1320   -2.4420   -3.5870 hc        1 MOL      0.070212
     53 N5          6.2840   -2.4220   -0.0620 n         1 MOL     -0.043053
     54 C17         7.2280   -1.8360    0.9310 c3        1 MOL     -0.371508
     55 C18         7.5370   -0.3590    0.6660 c         1 MOL      0.712109
     56 O9          8.3150    0.1660    1.4510 o         1 MOL     -0.586644
     57 H25         5.2850   -2.3490    0.0700 hn        1 MOL      0.100202
     58 H26         8.1810   -2.3510    0.8530 h1        1 MOL      0.155239
     59 H27         6.7890   -1.9970    1.9100 h1        1 MOL      0.155239
     60 N6          6.9500    0.2850   -0.2990 n         1 MOL     -0.390673
     61 C19         7.2670    1.6190   -0.8940 c3        1 MOL     -0.013049
     62 C20         5.9910    2.4850   -0.9480 c         1 MOL      0.760165
     63 O10         4.8180    2.0340   -0.9200 o         1 MOL     -0.724276
     64 C21         7.8620    1.4540   -2.2810 c3        1 MOL     -0.424335
     65 C22         9.2050    0.7860   -2.1730 c         1 MOL      0.725316
     66 N7          9.4860   -0.2480   -2.9560 n         1 MOL     -0.755299
     67 O11        10.0740    1.3330   -1.5800 o         1 MOL     -0.521329
     68 H28         6.2990   -0.2270   -0.8720 hn        1 MOL      0.347439
     69 H29         7.9970    2.1330   -0.2580 h1        1 MOL      0.071229
     70 H30         7.8690    2.4130   -2.8090 hc        1 MOL      0.101616
     71 H31         7.2000    0.8400   -2.9120 hc        1 MOL      0.101616
     72 H32         8.7410   -0.4630   -3.6070 hn        1 MOL      0.358772
     73 H33        10.4250   -0.5410   -3.1430 hn        1 MOL      0.358772
     74 N8          6.2090    3.8010   -0.9760 n         1 MOL     -0.468671
     75 C23         5.1430    4.8700   -0.9170 c3        1 MOL     -0.100364
     76 C24         4.0380    4.7220    0.1600 c         1 MOL      0.636632
     77 O12         4.3510    4.3720    1.3110 o         1 MOL     -0.518472
     78 H34         7.1570    4.1240   -0.8820 hn        1 MOL      0.340672
     79 H35         4.6620    4.9160   -1.9020 h1        1 MOL      0.090935
     80 H36         5.6480    5.8210   -0.7620 h1        1 MOL      0.090935
     81 N9          2.7260    4.9680   -0.0700 n         1 MOL     -0.679840
     82 C25         1.6820    4.7020    0.9440 c3        1 MOL      0.362974
     83 C26         1.5370    3.1300    1.3750 c         1 MOL      0.477605
     84 O13         2.1870    2.2840    0.7670 o         1 MOL     -0.370584
     85 C27         0.3580    5.2460    0.3870 c3        1 MOL     -0.145302
     86 C28         0.3360    6.7730    0.2710 ca        1 MOL      0.064066
     87 C29         0.1540    7.3320   -0.9950 ca        1 MOL     -0.163131
     88 C30         0.5960    7.5760    1.3840 ca        1 MOL     -0.163131
     89 C31         0.0770    8.7080   -1.1460 ca        1 MOL     -0.204907
     90 C32         0.4530    9.0150    1.2040 ca        1 MOL     -0.204907
     91 C33         0.2200    9.5350   -0.0500 ca        1 MOL      0.274678
     92 O14         0.0610   10.9170   -0.1170 oh        1 MOL     -0.457979
     93 H37         2.3860    5.2610   -0.9750 hn        1 MOL      0.306970
     94 H38         1.9050    5.1880    1.8910 h1        1 MOL      0.035006
     95 H39        -0.4180    4.9310    1.0790 hc        1 MOL      0.026951
     96 H40         0.2100    4.7200   -0.5560 hc        1 MOL      0.026951
     97 H41         0.0950    6.6920   -1.8570 ha        1 MOL      0.121216
     98 H42         0.6970    7.0770    2.3350 ha        1 MOL      0.121216
     99 H43        -0.0040    9.1490   -2.1300 ha        1 MOL      0.150930
    100 H44         0.5470    9.6720    2.0560 ha        1 MOL      0.150930
    101 H45        -0.1450   11.2050   -1.0190 ho        1 MOL      0.352429
    102 N10         0.5760    2.8560    2.2540 n         1 MOL     -0.800322
    103 C34         0.2130    1.5050    2.7300 c3        1 MOL      0.189772
    104 C35         0.0320    0.5960    1.5290 c         1 MOL      0.765032
    105 O15         0.9070    0.0360    0.8930 o         1 MOL     -0.609833
    106 C36         1.2640    0.9880    3.7400 c3        1 MOL      0.197688
    107 C37         0.8640   -0.3550    4.3740 c3        1 MOL      0.020454
    108 C38         1.6370    2.0510    4.8030 c3        1 MOL     -0.350297
    109 C39        -0.4860   -0.4300    5.0930 c3        1 MOL     -0.111719
    110 H46         0.1490    3.6500    2.7270 hn        1 MOL      0.380896
    111 H47        -0.7300    1.5060    3.2740 h1        1 MOL      0.040037
    112 H48         2.1580    0.8190    3.1290 hc        1 MOL      0.029724
    113 H49         1.7130   -0.8020    4.8930 hc        1 MOL      0.013746
    114 H50         0.6910   -0.9680    3.4860 hc        1 MOL      0.013746
    115 H51         2.0500    1.6650    5.7360 hc        1 MOL      0.092420
    116 H52         2.3930    2.6880    4.3360 hc        1 MOL      0.092420
    117 H53         0.8060    2.7240    5.0280 hc        1 MOL      0.092420
    118 H54        -0.4670    0.4010    5.8030 hc        1 MOL      0.014086
    119 H55        -1.2980   -0.2340    4.4050 hc        1 MOL      0.014086
    120 H56        -0.5380   -1.4000    5.5870 hc        1 MOL      0.014086
    121 N11        -1.2540    0.2000    1.2850 n         1 MOL     -0.781434
    122 C40        -1.6080   -0.9280    0.3640 c3        1 MOL      0.358063
    123 C41        -3.0120   -0.9390   -0.2360 c         1 MOL      0.406049
    124 O16        -3.3250   -1.7990   -1.0790 o         1 MOL     -0.522487
    125 C42        -1.3810   -2.3170    1.0000 c3        1 MOL      0.439157
    126 O17        -1.9360   -2.4590    2.2530 oh        1 MOL     -0.667838
    127 H57        -1.9690    0.5430    1.9030 hn        1 MOL      0.347144
    128 H58        -0.8810   -0.7460   -0.4210 h1        1 MOL      0.036495
    129 H59        -0.2950   -2.4520    1.0700 h1        1 MOL     -0.120879
    130 H60        -1.7150   -3.1500    0.3850 h1        1 MOL     -0.120879
    131 H61        -1.5120   -3.1220    2.8080 ho        1 MOL      0.439701
    132 N12        -3.8740    0.0310    0.1240 n         1 MOL     -0.404307
    133 C43        -5.2390    0.0420   -0.4520 c3        1 MOL     -0.022885
    134 C44        -5.4370    0.8470   -1.7210 c         1 MOL      0.659307
    135 O18        -4.5210    1.4710   -2.2110 o         1 MOL     -0.570111
    136 C45        -6.1190    0.5990    0.7140 c3        1 MOL     -0.176017
    137 H62        -3.5720    0.7520    0.7580 hn        1 MOL      0.270361
    138 H63        -5.4510   -0.9880   -0.7490 h1        1 MOL      0.115862
    139 H64        -5.9110    0.1850    1.7040 hc        1 MOL      0.077263
    140 H65        -6.0770    1.6690    0.8780 hc        1 MOL      0.077263
    141 H66        -7.1270    0.3000    0.4510 hc        1 MOL      0.077263
    142 N13        -6.5690    0.8580   -2.4450 n         1 MOL     -0.718343
    143 C46        -7.7370    0.0280   -2.2790 c3        1 MOL      0.434970
    144 C47        -9.0380    0.7350   -2.6630 c         1 MOL      0.379129
    145 O19        -9.0780    1.4760   -3.6380 o         1 MOL     -0.523176
    146 C48        -7.6200   -1.2870   -3.1100 c3        1 MOL     -0.467527
    147 H67        -6.5300    1.3620   -3.3270 hn        1 MOL      0.373414
    148 H68        -7.8090   -0.3130   -1.2480 h1        1 MOL      0.027217
    149 H69        -8.5830   -1.7970   -3.1710 hc        1 MOL      0.124541
    150 H70        -7.3410   -0.9730   -4.1110 hc        1 MOL      0.124541
    151 H71        -7.0230   -2.0430   -2.5950 hc        1 MOL      0.124541
    152 N14       -10.1240    0.5970   -1.9140 n         1 MOL     -0.393948
    153 C49       -10.4060   -0.2680   -0.7160 c3        1 MOL     -0.201493
    154 C50        -9.8670    0.4470    0.5630 c         1 MOL      0.455757
    155 O20        -9.3400   -0.2080    1.5110 o         1 MOL     -0.513795
    156 C51       -11.9620   -0.4900   -0.6020 c3        1 MOL      0.207065
    157 C52       -12.3460   -1.5910    0.3600 c3        1 MOL     -0.278676
    158 C53       -13.8610   -1.6270    0.4990 c         1 MOL      0.698393
    159 O21       -14.4250   -0.6290    0.9310 o         1 MOL     -0.691783
    160 O22       -14.4670   -2.6260    0.0090 o         1 MOL     -0.691783
    161 H72       -10.9180    1.0960   -2.2860 hn        1 MOL      0.278384
    162 H73        -9.8670   -1.1960   -0.8750 h1        1 MOL      0.112976
    163 H74       -12.2820   -0.7420   -1.6160 hc        1 MOL      0.006183
    164 H75       -12.4300    0.4580   -0.2970 hc        1 MOL      0.006183
    165 H76       -11.9060   -1.4710    1.3570 hc        1 MOL      0.044117
    166 H77       -11.9980   -2.5400   -0.0500 hc        1 MOL      0.044117
    167 N15        -9.9100    1.7870    0.5530 n         1 MOL     -0.235594
    168 C54        -9.2240    2.7380    1.4120 c3        1 MOL     -0.278372
    169 H78        -8.1900    2.8430    1.0840 h1        1 MOL      0.121932
    170 H79        -9.7220    3.7060    1.3550 h1        1 MOL      0.121932
    171 H80        -9.2430    2.3790    2.4410 h1        1 MOL      0.121932
    172 H81       -10.5820    2.2020   -0.0700 hn        1 MOL      0.263952
    173 Ca1         2.8300    0.3160   -1.0310 Ca        1 MOL      1.815820
    174 O23         0.8400   -0.7570   -2.6240 oh        1 MOL     -0.933429
    175 H82         0.0170   -1.1570   -2.8940 ho        1 MOL      0.452666
    176 H83         1.5210   -1.2410   -3.1040 ho        1 MOL      0.452666
    177 O24         0.9160    2.0340   -1.7960 oh        1 MOL     -0.933429
    178 H84         0.8540    2.9500   -2.0660 ho        1 MOL      0.452666
    179 H85         0.1050    1.6410   -2.1140 ho        1 MOL      0.452666
@<TRIPOS>BOND
     1    1    2 1   
     2    1    4 1   
     3    1    5 1   
     4    1    6 1   
     5    2    3 2   
     6    2    7 1   
     7    7    8 1   
     8    7   15 1   
     9    8    9 1   
    10    8   11 1   
    11    8   16 1   
    12    9   10 2   
    13    9   19 1   
    14   11   12 1   
    15   11   17 1   
    16   11   18 1   
    17   12   13 1   
    18   12   14 1   
    19   19   20 1   
    20   19   28 1   
    21   20   21 1   
    22   20   23 1   
    23   20   29 1   
    24   21   22 2   
    25   21   41 1   
    26   23   24 1   
    27   23   30 1   
    28   23   31 1   
    29   24   25 1   
    30   24   32 1   
    31   24   33 1   
    32   25   26 1   
    33   25   34 1   
    34   25   35 1   
    35   26   27 1   
    36   26   36 1   
    37   26   37 1   
    38   27   38 1   
    39   27   39 1   
    40   27   40 1   
    41   41   42 1   
    42   41   49 1   
    43   42   43 1   
    44   42   45 1   
    45   42   50 1   
    46   43   44 2   
    47   43   53 1   
    48   45   46 1   
    49   45   51 1   
    50   45   52 1   
    51   46   47 1   
    52   46   48 1   
    53   53   54 1   
    54   53   57 1   
    55   54   55 1   
    56   54   58 1   
    57   54   59 1   
    58   55   56 2   
    59   55   60 1   
    60   60   61 1   
    61   60   68 1   
    62   61   62 1   
    63   61   64 1   
    64   61   69 1   
    65   62   63 2   
    66   62   74 1   
    67   64   65 1   
    68   64   70 1   
    69   64   71 1   
    70   65   66 1   
    71   65   67 2   
    72   66   72 1   
    73   66   73 1   
    74   74   75 1   
    75   74   78 1   
    76   75   76 1   
    77   75   79 1   
    78   75   80 1   
    79   76   77 2   
    80   76   81 1   
    81   81   82 1   
    82   81   93 1   
    83   82   83 1   
    84   82   85 1   
    85   82   94 1   
    86   83   84 2   
    87   83  102 1   
    88   85   86 1   
    89   85   95 1   
    90   85   96 1   
    91   86   87 ar  
    92   86   88 ar  
    93   87   89 ar  
    94   87   97 1   
    95   88   90 ar  
    96   88   98 1   
    97   89   91 ar  
    98   89   99 1   
    99   90   91 ar  
   100   90  100 1   
   101   91   92 1   
   102   92  101 1   
   103  102  103 1   
   104  102  110 1   
   105  103  104 1   
   106  103  106 1   
   107  103  111 1   
   108  104  105 2   
   109  104  121 1   
   110  106  107 1   
   111  106  108 1   
   112  106  112 1   
   113  107  109 1   
   114  107  113 1   
   115  107  114 1   
   116  108  115 1   
   117  108  116 1   
   118  108  117 1   
   119  109  118 1   
   120  109  119 1   
   121  109  120 1   
   122  121  122 1   
   123  121  127 1   
   124  122  123 1   
   125  122  125 1   
   126  122  128 1   
   127  123  124 2   
   128  123  132 1   
   129  125  126 1   
   130  125  129 1   
   131  125  130 1   
   132  126  131 1   
   133  132  133 1   
   134  132  137 1   
   135  133  134 1   
   136  133  136 1   
   137  133  138 1   
   138  134  135 2   
   139  134  142 1   
   140  136  139 1   
   141  136  140 1   
   142  136  141 1   
   143  142  143 1   
   144  142  147 1   
   145  143  144 1   
   146  143  146 1   
   147  143  148 1   
   148  144  145 2   
   149  144  152 1   
   150  146  149 1   
   151  146  150 1   
   152  146  151 1   
   153  152  153 1   
   154  152  161 1   
   155  153  154 1   
   156  153  156 1   
   157  153  162 1   
   158  154  155 2   
   159  154  167 1   
   160  156  157 1   
   161  156  163 1   
   162  156  164 1   
   163  157  158 1   
   164  157  165 1   
   165  157  166 1   
   166  158  159 1   
   167  158  160 1   
   168  167  168 1   
   169  167  172 1   
   170  168  169 1   
   171  168  170 1   
   172  168  171 1   
   173  174  175 1   
   174  174  176 1   
   175  177  178 1   
   176  177  179 1   
@<TRIPOS>SUBSTRUCTURE
     1 MOL         1 TEMP              0 ****  ****    0 ROOT
