@<TRIPOS>MOLECULE
MOL
  186   183     1     0     0
SMALL
resp


@<TRIPOS>ATOM
      1 C1         12.2880    4.8100   -3.6030 c3        1 MOL     -0.283103
      2 C2         11.9500    3.6990   -2.5520 c         1 MOL      0.615623
      3 O1         11.9410    2.5050   -2.7760 o         1 MOL     -0.575863
      4 H1         11.3860    5.3770   -3.8350 hc        1 MOL      0.080759
      5 H2         13.0440    5.4810   -3.1950 hc        1 MOL      0.080759
      6 H3         12.6680    4.3450   -4.5130 hc        1 MOL      0.080759
      7 N1         11.5320    4.1400   -1.3420 n         1 MOL     -0.273811
      8 C3         11.0810    3.2460   -0.2690 c3        1 MOL     -0.475014
      9 C4          9.6490    2.7100   -0.4620 c         1 MOL      0.841334
     10 O2          8.6480    3.4200   -0.3910 o         1 MOL     -0.786933
     11 C5         11.1930    3.8990    1.1080 c3        1 MOL     -0.058048
     12 C6         10.6570    5.3510    1.1830 c         1 MOL      0.720591
     13 O3          9.4860    5.6900    1.5060 o         1 MOL     -0.712223
     14 O4         11.3860    6.2810    0.7600 o         1 MOL     -0.712223
     15 H4         11.3960    5.1120   -1.0990 hn        1 MOL      0.267917
     16 H5         11.7720    2.4000   -0.2540 h1        1 MOL      0.192457
     17 H6         12.2040    3.8870    1.5030 hc        1 MOL      0.040983
     18 H7         10.5410    3.4370    1.8640 hc        1 MOL      0.040983
     19 N2          9.5280    1.4090   -0.7190 n         1 MOL     -0.418258
     20 C7          8.3670    0.6550   -1.1530 c3        1 MOL      0.116138
     21 C8          7.2660    0.6360   -0.0410 c         1 MOL      0.548222
     22 O5          7.6170    0.8070    1.1790 o         1 MOL     -0.527031
     23 C9          8.7910   -0.6920   -1.7420 c3        1 MOL     -0.484490
     24 C10         9.0000   -1.6250   -0.6610 c3        1 MOL      0.276215
     25 C11         9.6510   -2.8850   -1.3040 c3        1 MOL     -0.029633
     26 C12         9.8370   -3.7430   -0.0550 c3        1 MOL      0.033501
     27 N3         10.5130   -5.0970   -0.3040 n4        1 MOL     -0.239978
     28 H8         10.3950    0.8910   -0.8090 hn        1 MOL      0.249631
     29 H9          7.9720    1.2420   -1.9850 h1        1 MOL      0.081078
     30 H10         9.7020   -0.5810   -2.3330 hc        1 MOL      0.155322
     31 H11         8.0130   -1.1460   -2.3530 hc        1 MOL      0.155322
     32 H12         8.0070   -1.7660   -0.2180 hc        1 MOL     -0.036856
     33 H13         9.5550   -1.1920    0.1710 hc        1 MOL     -0.036856
     34 H14        10.6030   -2.6640   -1.7810 hc        1 MOL      0.028828
     35 H15         8.9480   -3.3100   -2.0250 hc        1 MOL      0.028828
     36 H16         8.9080   -3.8790    0.4790 hx        1 MOL      0.075905
     37 H17        10.4600   -3.1090    0.5800 hx        1 MOL      0.075905
     38 H18        11.4530   -4.9470   -0.6500 hn        1 MOL      0.249494
     39 H19        10.6530   -5.6340    0.5390 hn        1 MOL      0.249494
     40 H20        10.0310   -5.6640   -0.9860 hn        1 MOL      0.249494
     41 N4          6.0450    0.3900   -0.4520 n         1 MOL     -0.574611
     42 C13         4.8600    0.1630    0.3960 c3        1 MOL      0.576391
     43 C14         3.9190   -0.9560   -0.1560 c         1 MOL      0.305456
     44 O6          4.0040   -1.2770   -1.3300 o         1 MOL     -0.530361
     45 C15         3.9890    1.4210    0.4590 c3        1 MOL     -0.213106
     46 C16         4.8770    2.6550    0.4770 c         1 MOL      0.755397
     47 O7          5.3290    3.2340   -0.4850 o         1 MOL     -0.804433
     48 O8          5.2090    3.1290    1.5650 o         1 MOL     -0.804433
     49 H21         5.9290    0.2270   -1.4400 hn        1 MOL      0.269399
     50 H22         5.2430   -0.0830    1.3910 h1        1 MOL     -0.049401
     51 H23         3.2760    1.4790    1.2910 hc        1 MOL      0.071477
     52 H24         3.5110    1.4500   -0.5150 hc        1 MOL      0.071477
     53 N5          2.9590   -1.4550    0.5660 n         1 MOL     -0.282325
     54 C17         2.7360   -1.3160    2.0130 c3        1 MOL     -0.436582
     55 C18         2.3160   -2.6650    2.6190 c         1 MOL      0.743490
     56 O9          2.7800   -3.7240    2.2770 o         1 MOL     -0.583315
     57 H25         2.3710   -2.1520    0.1280 hn        1 MOL      0.320992
     58 H26         1.9730   -0.5700    2.2410 h1        1 MOL      0.160340
     59 H27         3.6260   -1.0780    2.6030 h1        1 MOL      0.160340
     60 N6          1.4420   -2.6280    3.6000 n         1 MOL     -0.440356
     61 C19         1.1020   -3.8290    4.3800 c3        1 MOL     -0.064126
     62 C20         0.2700   -4.6650    3.4960 c         1 MOL      0.613246
     63 O10        -0.8790   -4.4190    3.1410 o         1 MOL     -0.531205
     64 C21         0.4890   -3.3320    5.7110 c3        1 MOL     -0.200280
     65 C22        -0.0880   -4.3670    6.7610 c         1 MOL      0.693169
     66 O11        -0.7290   -3.8990    7.7470 o         1 MOL     -0.651318
     67 O12         0.0960   -5.5730    6.4570 o         1 MOL     -0.651318
     68 H28         1.1690   -1.7160    3.9470 hn        1 MOL      0.277532
     69 H29         2.0240   -4.3930    4.5390 h1        1 MOL      0.068071
     70 H30        -0.3780   -2.7160    5.4750 hc        1 MOL      0.059099
     71 H31         1.1790   -2.6730    6.2420 hc        1 MOL      0.059099
     72 N7          0.8060   -5.8390    3.0510 n         1 MOL     -0.299661
     73 C23         0.1230   -6.8210    2.2120 c3        1 MOL     -0.248176
     74 C24        -0.0570   -6.3880    0.7270 c         1 MOL      0.610723
     75 O13        -0.8080   -7.0320    0.0410 o         1 MOL     -0.593357
     76 H32         1.7600   -5.9870    3.3460 hn        1 MOL      0.238742
     77 H33        -0.8370   -7.0830    2.6570 h1        1 MOL      0.129619
     78 H34         0.6960   -7.7350    2.0890 h1        1 MOL      0.129619
     79 N8          0.4700   -5.2670    0.3910 n         1 MOL     -0.155201
     80 C25         0.3330   -4.7680   -1.0200 c3        1 MOL     -0.151117
     81 C26         0.0990   -3.2220   -0.9750 c         1 MOL      0.413109
     82 O14         0.3920   -2.6020    0.0560 o         1 MOL     -0.503663
     83 C27         1.4000   -5.1230   -2.0510 c3        1 MOL      0.433935
     84 C28         2.7270   -4.6120   -1.5710 c3        1 MOL     -0.417269
     85 O15         1.4890   -6.5040   -2.1340 oh        1 MOL     -0.582996
     86 H35         1.0090   -4.7010    1.0350 hn        1 MOL      0.120633
     87 H36        -0.6080   -5.1170   -1.4510 h1        1 MOL      0.054907
     88 H37         1.0570   -4.6880   -2.9890 h1        1 MOL     -0.061709
     89 H38         1.7930   -6.5980   -3.0400 ho        1 MOL      0.367548
     90 H39         3.4720   -4.8870   -2.3200 hc        1 MOL      0.099939
     91 H40         2.7400   -3.5300   -1.5180 hc        1 MOL      0.099939
     92 H41         2.9410   -5.0490   -0.5900 hc        1 MOL      0.099939
     93 N9         -0.4250   -2.7190   -2.0470 n         1 MOL     -0.000099
     94 C29        -0.9430   -1.3060   -2.0690 c3        1 MOL     -0.500136
     95 C30        -2.4120   -1.3490   -1.5920 c         1 MOL      0.749382
     96 O16        -2.9030   -0.4720   -0.8300 o         1 MOL     -0.555819
     97 C31        -0.8060   -0.5550   -3.4250 c3        1 MOL      0.303413
     98 C32         0.6720   -0.4650   -3.7940 c3        1 MOL      0.017970
     99 C33        -1.4000    0.8740   -3.3830 c3        1 MOL     -0.527488
    100 C34         1.2950   -1.7620   -4.4780 c3        1 MOL     -0.250974
    101 H42        -0.6720   -3.3860   -2.7790 hn        1 MOL      0.191449
    102 H43        -0.4390   -0.7020   -1.3130 h1        1 MOL      0.181739
    103 H44        -1.3200   -1.0770   -4.2280 hc        1 MOL      0.003626
    104 H45         1.3220   -0.1170   -2.9950 hc        1 MOL      0.015524
    105 H46         0.7090    0.3510   -4.5210 hc        1 MOL      0.015524
    106 H47        -1.2960    1.3080   -4.3760 hc        1 MOL      0.143062
    107 H48        -2.4620    0.7820   -3.1440 hc        1 MOL      0.143062
    108 H49        -1.0110    1.4930   -2.5870 hc        1 MOL      0.143062
    109 H50         2.2770   -1.5520   -4.9150 hc        1 MOL      0.053686
    110 H51         1.4950   -2.5560   -3.7640 hc        1 MOL      0.053686
    111 H52         0.6890   -2.0300   -5.3440 hc        1 MOL      0.053686
    112 N10        -3.2390   -2.3180   -1.9990 n         1 MOL     -0.546866
    113 C35        -4.6410   -2.4590   -1.5950 c3        1 MOL     -0.138383
    114 C36        -5.6620   -1.9570   -2.6540 c         1 MOL      0.623286
    115 O17        -5.4300   -2.1400   -3.8830 o         1 MOL     -0.539727
    116 C37        -4.8060   -3.9830   -1.1890 c3        1 MOL      0.437210
    117 C38        -3.7040   -4.4810   -0.1870 c3        1 MOL     -0.342992
    118 O18        -6.0630   -4.2360   -0.5120 oh        1 MOL     -0.687741
    119 H53        -2.8360   -2.9960   -2.6250 hn        1 MOL      0.271707
    120 H54        -4.8310   -1.8200   -0.7300 h1        1 MOL      0.116836
    121 H55        -4.6720   -4.6410   -2.0580 h1        1 MOL      0.038555
    122 H56        -6.0540   -4.0440    0.4300 ho        1 MOL      0.415686
    123 H57        -4.0800   -5.3020    0.4200 hc        1 MOL      0.104216
    124 H58        -2.7780   -4.7550   -0.6890 hc        1 MOL      0.104216
    125 H59        -3.5130   -3.6530    0.4990 hc        1 MOL      0.104216
    126 N11        -6.7740   -1.3550   -2.2340 n         1 MOL     -0.351458
    127 C39        -7.8040   -0.8660   -3.1900 c3        1 MOL     -0.377103
    128 C40        -8.3830    0.5860   -2.9870 c         1 MOL      0.705858
    129 O19        -8.8450    1.2130   -3.9410 o         1 MOL     -0.565888
    130 C41        -9.0010   -1.9160   -3.2910 c3        1 MOL      0.371107
    131 C42        -9.9040   -1.9370   -1.9940 c3        1 MOL     -0.373107
    132 O20        -8.3240   -3.1770   -3.4440 oh        1 MOL     -0.521222
    133 H60        -6.8580   -1.1090   -1.2660 hn        1 MOL      0.250350
    134 H61        -7.3550   -0.6150   -4.1470 h1        1 MOL      0.180372
    135 H62        -9.6660   -1.6310   -4.1090 h1        1 MOL      0.022134
    136 H63        -8.8920   -3.7290   -3.9930 ho        1 MOL      0.369705
    137 H64       -10.7160   -2.5670   -2.3510 hc        1 MOL      0.085652
    138 H65        -9.3890   -2.3200   -1.1090 hc        1 MOL      0.085652
    139 H66       -10.3040   -0.9430   -1.8060 hc        1 MOL      0.085652
    140 N12        -8.3940    1.0600   -1.7330 n         1 MOL     -0.477736
    141 C43        -8.8730    2.4280   -1.2880 c3        1 MOL     -0.037582
    142 C44        -8.1300    2.8930   -0.0800 c         1 MOL      0.344381
    143 O21        -7.8090    2.0780    0.7770 o         1 MOL     -0.510253
    144 C45       -10.3220    2.4610   -0.9460 c3        1 MOL     -0.121819
    145 C46       -10.8210    1.6400    0.2720 c3        1 MOL     -0.073253
    146 C47       -12.3770    1.3610    0.0750 c3        1 MOL     -0.025174
    147 C48       -12.7100    0.5140    1.3320 c3        1 MOL     -0.091097
    148 N13       -13.8810   -0.3160    1.0700 n4        1 MOL     -0.184035
    149 H67        -8.0760    0.3780   -1.0620 hn        1 MOL      0.327239
    150 H68        -8.7090    3.1400   -2.1010 h1        1 MOL      0.120172
    151 H69       -10.8740    2.1100   -1.8230 hc        1 MOL      0.048764
    152 H70       -10.5880    3.4930   -0.7120 hc        1 MOL      0.048764
    153 H71       -10.6710    2.2190    1.1740 hc        1 MOL      0.056841
    154 H72       -10.2870    0.6970    0.3880 hc        1 MOL      0.056841
    155 H73       -12.4840    0.8460   -0.8890 hc        1 MOL      0.059446
    156 H74       -12.8560    2.3440    0.0030 hc        1 MOL      0.059446
    157 H75       -12.7960    1.1200    2.2310 hx        1 MOL      0.127181
    158 H76       -11.9430   -0.2600    1.4370 hx        1 MOL      0.127181
    159 H77       -14.7730    0.1400    1.1900 hn        1 MOL      0.242550
    160 H78       -13.8980   -0.7460    0.1460 hn        1 MOL      0.242550
    161 H79       -13.8540   -1.1160    1.7020 hn        1 MOL      0.242550
    162 N14        -7.8590    4.1890    0.0960 n         1 MOL     -0.114758
    163 C49        -7.5130    4.8360    1.4470 c3        1 MOL      0.190154
    164 C50        -6.0050    5.2760    1.6340 c         1 MOL      0.335184
    165 O22        -5.5330    5.1060    2.7680 o         1 MOL     -0.502665
    166 C51        -8.4740    6.0060    1.7330 c3        1 MOL     -0.200088
    167 C52        -9.8700    5.4770    2.1430 c3        1 MOL     -0.285939
    168 C53       -10.8160    6.7130    2.4090 c         1 MOL      0.684314
    169 O23       -11.5480    7.1810    1.4790 o         1 MOL     -0.663191
    170 O24       -10.9000    7.1520    3.5920 o         1 MOL     -0.663191
    171 H80        -8.0360    4.8170   -0.6760 hn        1 MOL      0.197695
    172 H81        -7.7210    4.0180    2.1230 h1        1 MOL      0.066231
    173 H82        -8.5020    6.7220    0.9060 hc        1 MOL      0.091375
    174 H83        -8.0250    6.5410    2.5730 hc        1 MOL      0.091375
    175 H84        -9.8140    4.8140    3.0050 hc        1 MOL      0.085577
    176 H85       -10.2640    4.9480    1.2720 hc        1 MOL      0.085577
    177 N15        -5.1260    5.7300    0.6820 n         1 MOL     -0.372003
    178 C54        -5.4380    5.8540   -0.8010 c3        1 MOL      0.045775
    179 H86        -5.8380    6.8480   -1.0050 h1        1 MOL      0.016976
    180 H87        -4.5260    5.7040   -1.3790 h1        1 MOL      0.016976
    181 H88        -6.1750    5.1020   -1.0820 h1        1 MOL      0.016976
    182 H89        -4.1890    5.9240    0.9980 hn        1 MOL      0.300849
    183 Ca1         6.9440    5.0560    0.3710 Ca        1 MOL      1.788769
    184 O25         7.4680    4.2570    2.9050 oh        1 MOL     -0.921536
    185 H90         7.1720    3.3950    3.2080 ho        1 MOL      0.452903
    186 H91         8.2050    4.4640    3.4700 ho        1 MOL      0.452903
@<TRIPOS>BOND
     1    1    2 1   
     2    1    4 1   
     3    1    5 1   
     4    1    6 1   
     5    2    3 2   
     6    2    7 1   
     7    7    8 1   
     8    7   15 1   
     9    8    9 1   
    10    8   11 1   
    11    8   16 1   
    12    9   10 2   
    13    9   19 1   
    14   11   12 1   
    15   11   17 1   
    16   11   18 1   
    17   12   13 1   
    18   12   14 1   
    19   19   20 1   
    20   19   28 1   
    21   20   21 1   
    22   20   23 1   
    23   20   29 1   
    24   21   22 2   
    25   21   41 1   
    26   23   24 1   
    27   23   30 1   
    28   23   31 1   
    29   24   25 1   
    30   24   32 1   
    31   24   33 1   
    32   25   26 1   
    33   25   34 1   
    34   25   35 1   
    35   26   27 1   
    36   26   36 1   
    37   26   37 1   
    38   27   38 1   
    39   27   39 1   
    40   27   40 1   
    41   41   42 1   
    42   41   49 1   
    43   42   43 1   
    44   42   45 1   
    45   42   50 1   
    46   43   44 2   
    47   43   53 1   
    48   45   46 1   
    49   45   51 1   
    50   45   52 1   
    51   46   47 1   
    52   46   48 1   
    53   53   54 1   
    54   53   57 1   
    55   54   55 1   
    56   54   58 1   
    57   54   59 1   
    58   55   56 2   
    59   55   60 1   
    60   60   61 1   
    61   60   68 1   
    62   61   62 1   
    63   61   64 1   
    64   61   69 1   
    65   62   63 2   
    66   62   72 1   
    67   64   65 1   
    68   64   70 1   
    69   64   71 1   
    70   65   66 1   
    71   65   67 1   
    72   72   73 1   
    73   72   76 1   
    74   73   74 1   
    75   73   77 1   
    76   73   78 1   
    77   74   75 2   
    78   74   79 1   
    79   79   80 1   
    80   79   86 1   
    81   80   81 1   
    82   80   83 1   
    83   80   87 1   
    84   81   82 2   
    85   81   93 1   
    86   83   84 1   
    87   83   85 1   
    88   83   88 1   
    89   84   90 1   
    90   84   91 1   
    91   84   92 1   
    92   85   89 1   
    93   93   94 1   
    94   93  101 1   
    95   94   95 1   
    96   94   97 1   
    97   94  102 1   
    98   95   96 2   
    99   95  112 1   
   100   97   98 1   
   101   97   99 1   
   102   97  103 1   
   103   98  100 1   
   104   98  104 1   
   105   98  105 1   
   106   99  106 1   
   107   99  107 1   
   108   99  108 1   
   109  100  109 1   
   110  100  110 1   
   111  100  111 1   
   112  112  113 1   
   113  112  119 1   
   114  113  114 1   
   115  113  116 1   
   116  113  120 1   
   117  114  115 2   
   118  114  126 1   
   119  116  117 1   
   120  116  118 1   
   121  116  121 1   
   122  117  123 1   
   123  117  124 1   
   124  117  125 1   
   125  118  122 1   
   126  126  127 1   
   127  126  133 1   
   128  127  128 1   
   129  127  130 1   
   130  127  134 1   
   131  128  129 2   
   132  128  140 1   
   133  130  131 1   
   134  130  132 1   
   135  130  135 1   
   136  131  137 1   
   137  131  138 1   
   138  131  139 1   
   139  132  136 1   
   140  140  141 1   
   141  140  149 1   
   142  141  142 1   
   143  141  144 1   
   144  141  150 1   
   145  142  143 2   
   146  142  162 1   
   147  144  145 1   
   148  144  151 1   
   149  144  152 1   
   150  145  146 1   
   151  145  153 1   
   152  145  154 1   
   153  146  147 1   
   154  146  155 1   
   155  146  156 1   
   156  147  148 1   
   157  147  157 1   
   158  147  158 1   
   159  148  159 1   
   160  148  160 1   
   161  148  161 1   
   162  162  163 1   
   163  162  171 1   
   164  163  164 1   
   165  163  166 1   
   166  163  172 1   
   167  164  165 2   
   168  164  177 1   
   169  166  167 1   
   170  166  173 1   
   171  166  174 1   
   172  167  168 1   
   173  167  175 1   
   174  167  176 1   
   175  168  169 1   
   176  168  170 1   
   177  177  178 1   
   178  177  182 1   
   179  178  179 1   
   180  178  180 1   
   181  178  181 1   
   182  184  185 1   
   183  184  186 1   
@<TRIPOS>SUBSTRUCTURE
     1 MOL         1 TEMP              0 ****  ****    0 ROOT
