@<TRIPOS>MOLECULE
MOL
  198   191     1     0     0
SMALL
resp


@<TRIPOS>ATOM
      1 C1          6.2150    2.5020    5.0260 c3        1 MOL     -0.322352
      2 C2          5.7660    2.0160    3.6490 c         1 MOL      0.580569
      3 O1          5.4780    2.8550    2.7520 o         1 MOL     -0.583198
      4 H1          6.3950    1.6420    5.6730 hc        1 MOL      0.087992
      5 H2          7.1340    3.0790    4.9270 hc        1 MOL      0.087992
      6 H3          5.4370    3.1270    5.4630 hc        1 MOL      0.087992
      7 N1          5.7680    0.7210    3.3930 n         1 MOL     -0.258359
      8 C3          5.2980    0.0070    2.1970 c3        1 MOL      0.472101
      9 C4          3.7680    0.0420    1.9780 c         1 MOL     -0.056455
     10 O2          3.3400   -0.5250    0.9900 o         1 MOL     -0.224205
     11 C5          5.7970   -1.3930    2.1430 c3        1 MOL     -0.015260
     12 C6          7.3770   -1.5480    2.4230 c         1 MOL      0.487743
     13 O3          7.7220   -1.2910    3.5770 o         1 MOL     -0.616080
     14 O4          8.1480   -1.5470    1.4250 o         1 MOL     -0.616080
     15 H4          5.9880    0.0920    4.1550 hn        1 MOL      0.170247
     16 H5          5.8170    0.5780    1.4300 h1        1 MOL     -0.000466
     17 H6          5.5530   -1.7850    1.1520 hc        1 MOL     -0.080676
     18 H7          5.3000   -1.9550    2.9300 hc        1 MOL     -0.080676
     19 N2          2.9590    0.6740    2.8360 n         1 MOL     -0.364478
     20 C7          1.4840    0.4910    2.8230 c3        1 MOL      0.194770
     21 C8          0.8020    1.8570    2.5840 c         1 MOL      0.539152
     22 O5          1.1670    2.8360    3.2120 o         1 MOL     -0.519350
     23 C9          1.0820   -0.1440    4.2000 c3        1 MOL     -0.217989
     24 C10         1.8120   -1.5040    4.3030 c3        1 MOL      0.198148
     25 C11         1.2370   -2.5500    5.3500 c3        1 MOL     -0.172079
     26 C12        -0.1160   -2.9910    4.9340 c3        1 MOL      0.145180
     27 N3         -0.5290   -4.2840    5.5200 n4        1 MOL     -0.502155
     28 H8          3.3980    1.1330    3.6170 hn        1 MOL      0.242821
     29 H9          1.2960   -0.2100    2.0140 h1        1 MOL      0.121047
     30 H10         0.0300   -0.4060    4.2030 hc        1 MOL      0.069402
     31 H11         1.4150    0.6360    4.8880 hc        1 MOL      0.069402
     32 H12         2.8370   -1.3420    4.6300 hc        1 MOL     -0.023130
     33 H13         1.8270   -2.0120    3.3440 hc        1 MOL     -0.023130
     34 H14         1.2770   -1.9790    6.2760 hc        1 MOL      0.038855
     35 H15         1.9150   -3.4000    5.4540 hc        1 MOL      0.038855
     36 H16        -0.0060   -3.0970    3.8530 hx        1 MOL      0.073434
     37 H17        -0.7260   -2.0870    5.0750 hx        1 MOL      0.073434
     38 H18        -0.0150   -5.0940    5.1940 hn        1 MOL      0.353287
     39 H19        -0.4650   -4.2050    6.5150 hn        1 MOL      0.353287
     40 H20        -1.5090   -4.3730    5.2610 hn        1 MOL      0.353287
     41 N4         -0.2210    1.9240    1.7290 n         1 MOL     -0.468648
     42 C13        -1.0360    0.8830    1.0860 c3        1 MOL     -0.088357
     43 C14        -1.5030   -0.2910    2.0030 c         1 MOL      0.495359
     44 O6         -0.8470   -1.3130    2.2100 o         1 MOL     -0.633536
     45 C15        -0.6010    0.4550   -0.2730 c3        1 MOL     -0.281711
     46 C16        -0.4270    1.5200   -1.3430 c         1 MOL      0.624434
     47 O7         -0.8940    2.6550   -1.1600 o         1 MOL     -0.720593
     48 O8          0.0330    1.2100   -2.4340 o         1 MOL     -0.720593
     49 H21        -0.5280    2.8380    1.4710 hn        1 MOL      0.240673
     50 H22        -1.9480    1.4510    0.8680 h1        1 MOL      0.084412
     51 H23        -1.2960   -0.3080   -0.6520 hc        1 MOL      0.153178
     52 H24         0.3830   -0.0020   -0.1740 hc        1 MOL      0.153178
     53 N5         -2.6690   -0.1730    2.6030 n         1 MOL     -0.178730
     54 C17        -3.5680    0.9440    2.4660 c3        1 MOL     -0.285657
     55 C18        -4.6850    0.9370    3.4950 c         1 MOL      0.571648
     56 O9         -4.8660    0.0610    4.2980 o         1 MOL     -0.530749
     57 H25        -2.8510   -0.9600    3.2140 hn        1 MOL      0.215488
     58 H26        -4.0170    0.7830    1.4850 h1        1 MOL      0.155701
     59 H27        -3.0750    1.8960    2.6880 h1        1 MOL      0.155701
     60 N6         -5.4860    2.0160    3.5700 n         1 MOL     -0.432371
     61 C19        -5.6120    3.0040    2.4620 c3        1 MOL      0.057297
     62 C20        -6.6050    2.5420    1.3740 c         1 MOL      0.443714
     63 O10        -7.5010    1.7360    1.7050 o         1 MOL     -0.411351
     64 C21        -6.0800    4.3220    3.1600 c3        1 MOL     -0.166293
     65 C22        -7.3730    4.1080    3.9890 c         1 MOL      0.702026
     66 O11        -8.5080    4.2060    3.4440 o         1 MOL     -0.666924
     67 O12        -7.2280    3.7640    5.1910 o         1 MOL     -0.666924
     68 H28        -6.0050    2.2170    4.4110 hn        1 MOL      0.288571
     69 H29        -4.6160    3.1490    2.0550 h1        1 MOL     -0.016149
     70 H30        -6.2850    5.1360    2.4540 hc        1 MOL      0.003934
     71 H31        -5.2760    4.6460    3.8210 hc        1 MOL      0.003934
     72 N7         -6.4440    3.1270    0.1630 n         1 MOL     -0.277127
     73 C23        -7.2090    2.7800   -1.0370 c3        1 MOL     -0.505817
     74 C24        -6.6910    1.6190   -1.8660 c         1 MOL      0.611305
     75 O13        -7.3530    1.1750   -2.8300 o         1 MOL     -0.586289
     76 H32        -5.6970    3.8050    0.0790 hn        1 MOL      0.244473
     77 H33        -7.0390    3.6140   -1.7250 h1        1 MOL      0.220120
     78 H34        -8.2180    2.7130   -0.6470 h1        1 MOL      0.220120
     79 N8         -5.5250    1.1160   -1.6270 n         1 MOL     -0.320046
     80 C25        -4.9780   -0.1520   -2.0990 c3        1 MOL     -0.034302
     81 C26        -5.1670   -1.1770   -1.0130 c         1 MOL      0.382619
     82 O14        -4.7980   -1.0330    0.1660 o         1 MOL     -0.442733
     83 C27        -3.5770   -0.0820   -2.6500 c3        1 MOL      0.552737
     84 C28        -3.3170    0.8610   -3.7230 c3        1 MOL     -0.460175
     85 O15        -3.0370   -1.3000   -3.0360 oh        1 MOL     -0.632596
     86 H35        -4.9240    1.6710   -1.0440 hn        1 MOL      0.158892
     87 H36        -5.6130   -0.4740   -2.9310 h1        1 MOL      0.096442
     88 H37        -2.9840    0.1200   -1.7570 h1        1 MOL     -0.002598
     89 H38        -2.1800   -1.2910   -2.6140 ho        1 MOL      0.355737
     90 H39        -3.8340    1.7460   -3.3450 hc        1 MOL      0.125482
     91 H40        -2.2470    1.0850   -3.6670 hc        1 MOL      0.125482
     92 H41        -3.5870    0.5530   -4.7280 hc        1 MOL      0.125482
     93 N9         -5.6140   -2.3550   -1.4370 n         1 MOL     -0.167045
     94 C29        -5.7950   -3.5990   -0.7000 c3        1 MOL     -0.296034
     95 C30        -4.5240   -4.3040   -0.2670 c         1 MOL      0.401360
     96 O16        -4.5200   -5.2390    0.5880 o         1 MOL     -0.550047
     97 C31        -6.6830   -4.5940   -1.5160 c3        1 MOL      0.226352
     98 C32        -5.9970   -4.9120   -2.8800 c3        1 MOL      0.094037
     99 C33        -8.1400   -4.1080   -1.6330 c3        1 MOL     -0.356544
    100 C34        -6.6640   -6.0850   -3.5350 c3        1 MOL     -0.098667
    101 H42        -5.9260   -2.3570   -2.3920 hn        1 MOL      0.208064
    102 H43        -6.2230   -3.3370    0.2790 h1        1 MOL      0.168141
    103 H44        -6.5720   -5.5070   -0.9330 hc        1 MOL      0.023882
    104 H45        -4.9590   -5.1910   -2.6660 hc        1 MOL     -0.013332
    105 H46        -5.9880   -4.0240   -3.5110 hc        1 MOL     -0.013332
    106 H47        -8.8130   -4.9520   -1.7990 hc        1 MOL      0.095561
    107 H48        -8.4290   -3.5170   -0.7580 hc        1 MOL      0.095561
    108 H49        -8.2290   -3.4330   -2.4820 hc        1 MOL      0.095561
    109 H50        -6.0390   -6.6570   -4.2120 hc        1 MOL      0.013916
    110 H51        -7.1740   -6.7370   -2.8110 hc        1 MOL      0.013916
    111 H52        -7.4760   -5.6730   -4.1410 hc        1 MOL      0.013916
    112 N10        -3.4270   -4.0090   -0.9410 n         1 MOL     -0.045183
    113 C35        -2.0730   -4.6790   -0.8210 c3        1 MOL      0.048035
    114 C36        -0.9410   -3.6150   -0.9280 c         1 MOL      0.364467
    115 O17        -1.0090   -2.6880   -1.7450 o         1 MOL     -0.353228
    116 C37        -1.8680   -5.7450   -1.8560 c3        1 MOL      0.260008
    117 C38        -1.9210   -5.3540   -3.3890 c3        1 MOL     -0.243882
    118 O18        -2.8730   -6.7260   -1.6210 oh        1 MOL     -0.577553
    119 H53        -3.4490   -3.1380   -1.4460 hn        1 MOL     -0.009642
    120 H54        -2.0090   -5.1250    0.1690 h1        1 MOL      0.022491
    121 H55        -0.9160   -6.2180   -1.6490 h1        1 MOL     -0.000858
    122 H56        -2.6480   -7.2620   -0.8470 ho        1 MOL      0.376853
    123 H57        -1.2600   -4.5430   -3.6860 hc        1 MOL      0.085060
    124 H58        -1.6960   -6.2740   -3.9380 hc        1 MOL      0.085060
    125 H59        -2.8880   -5.0080   -3.7310 hc        1 MOL      0.085060
    126 N11         0.1630   -3.8380   -0.2530 n         1 MOL     -0.328939
    127 C39         1.4090   -3.1180   -0.1710 c3        1 MOL     -0.079716
    128 C40         2.1520   -2.8490   -1.5450 c         1 MOL      0.356452
    129 O19         1.7470   -3.4990   -2.5360 o         1 MOL     -0.466298
    130 C41         2.4370   -3.9030    0.7580 c3        1 MOL      0.354852
    131 C42         2.9190   -5.2320    0.1220 c3        1 MOL     -0.404126
    132 O20         1.8580   -4.1820    1.9970 oh        1 MOL     -0.582983
    133 H60         0.1530   -4.6760    0.3060 hn        1 MOL      0.255793
    134 H61         1.1890   -2.2040    0.3710 h1        1 MOL      0.163622
    135 H62         3.3400   -3.3350    0.9830 h1        1 MOL      0.069833
    136 H63         2.6140   -4.4370    2.5210 ho        1 MOL      0.374469
    137 H64         2.0550   -5.8720   -0.0320 hc        1 MOL      0.096760
    138 H65         3.4970   -5.0400   -0.7950 hc        1 MOL      0.096760
    139 H66         3.5890   -5.6590    0.8690 hc        1 MOL      0.096760
    140 N12         3.1480   -1.9370   -1.5080 n         1 MOL     -0.137663
    141 C43         3.9210   -1.7520   -2.7040 c3        1 MOL      0.049915
    142 C44         4.4090   -0.3030   -2.8060 c         1 MOL      0.506032
    143 O21         4.9260    0.0810   -3.8240 o         1 MOL     -0.607477
    144 C45         5.0080   -2.8510   -2.7980 c3        1 MOL     -0.188713
    145 C46         5.9990   -2.9110   -1.6040 c3        1 MOL      0.444825
    146 C47         7.0600   -3.9690   -1.8080 c3        1 MOL     -0.379374
    147 C48         7.6910   -4.3480   -0.4850 c3        1 MOL      0.333990
    148 N13         8.9840   -5.0910   -0.7070 n4        1 MOL     -0.556980
    149 H67         3.4290   -1.6190   -0.5920 hn        1 MOL     -0.170917
    150 H68         3.2630   -2.0880   -3.5100 h1        1 MOL      0.098978
    151 H69         5.6580   -2.6180   -3.6460 hc        1 MOL      0.046694
    152 H70         4.4910   -3.8140   -2.8650 hc        1 MOL      0.046694
    153 H71         5.4060   -3.3470   -0.7950 hc        1 MOL     -0.048831
    154 H72         6.3830   -1.9440   -1.2900 hc        1 MOL     -0.048831
    155 H73         7.8700   -3.5840   -2.4350 hc        1 MOL      0.072592
    156 H74         6.7040   -4.8710   -2.3200 hc        1 MOL      0.072592
    157 H75         6.9620   -4.8370    0.1640 hx        1 MOL      0.001880
    158 H76         7.8990   -3.5000    0.1670 hx        1 MOL      0.001880
    159 H77         9.7090   -4.4540   -1.0190 hn        1 MOL      0.366031
    160 H78         9.2820   -5.5070    0.1580 hn        1 MOL      0.366031
    161 H79         8.8880   -5.8530   -1.3750 hn        1 MOL      0.366031
    162 N14         4.2670    0.4800   -1.7810 n         1 MOL     -0.084335
    163 C49         4.5820    1.9460   -1.7740 c3        1 MOL     -0.159543
    164 C50         6.1080    2.1880   -1.7650 c         1 MOL      0.471499
    165 O22         6.7780    1.5600   -0.9490 o         1 MOL     -0.480509
    166 C51         3.9890    2.5660   -0.4620 c3        1 MOL     -0.024677
    167 C52         4.1680    4.1340   -0.4830 c3        1 MOL     -0.514040
    168 C53         3.4070    4.7610   -1.6180 c         1 MOL      0.727339
    169 O23         3.9880    5.6560   -2.3430 o         1 MOL     -0.748233
    170 O24         2.2290    4.3920   -1.8670 o         1 MOL     -0.748233
    171 H80         3.7140    0.1470   -1.0060 hn        1 MOL      0.163289
    172 H81         4.0470    2.4730   -2.5630 h1        1 MOL      0.114687
    173 H82         4.3630    2.2680    0.5110 hc        1 MOL      0.092486
    174 H83         2.9500    2.2520   -0.4940 hc        1 MOL      0.092486
    175 H84         5.1990    4.4200   -0.7090 hc        1 MOL      0.179911
    176 H85         3.7610    4.5630    0.4400 hc        1 MOL      0.179911
    177 N15         6.5560    3.0780   -2.6870 n         1 MOL     -0.235096
    178 C54         7.9100    3.5950   -2.9320 c3        1 MOL     -0.230567
    179 H86         7.8610    4.6680   -3.1150 h1        1 MOL      0.105479
    180 H87         8.5360    3.4030   -2.0610 h1        1 MOL      0.105479
    181 H88         8.3370    3.0980   -3.8030 h1        1 MOL      0.105479
    182 H89         5.8580    3.4400   -3.3230 hn        1 MOL      0.268310
    183 Ca1        -0.2500    5.2210   -1.7610 Ca        1 MOL      1.799510
    184 O25         0.8730    7.4380   -0.7090 oh        1 MOL     -0.865586
    185 H90         1.6410    7.6760   -1.2230 ho        1 MOL      0.425598
    186 H91         0.5760    8.2520   -0.3200 ho        1 MOL      0.425598
    187 O26         0.6950    3.2830   -3.9180 oh        1 MOL     -0.865586
    188 H92         1.6480    3.3080   -3.9580 ho        1 MOL      0.425598
    189 H93         0.5020    2.5150   -3.3750 ho        1 MOL      0.425598
    190 O27         1.4260    6.5250   -3.7820 oh        1 MOL     -0.865586
    191 H94         1.5540    7.1920   -4.4570 ho        1 MOL      0.425598
    192 H95         2.3140    6.2860   -3.5090 ho        1 MOL      0.425598
    193 O28        -1.0450    7.4380   -2.7800 oh        1 MOL     -0.865586
    194 H96        -1.8730    7.8830   -2.5920 ho        1 MOL      0.425598
    195 H97        -0.4770    8.1370   -3.1120 ho        1 MOL      0.425598
    196 O29        -2.2440    4.8240   -3.3390 oh        1 MOL     -0.865586
    197 H98        -2.8720    5.5420   -3.3130 ho        1 MOL      0.425598
    198 H99        -2.3050    4.4780   -4.2360 ho        1 MOL      0.425598
@<TRIPOS>BOND
     1    1    2 1   
     2    1    4 1   
     3    1    5 1   
     4    1    6 1   
     5    2    3 2   
     6    2    7 1   
     7    7    8 1   
     8    7   15 1   
     9    8    9 1   
    10    8   11 1   
    11    8   16 1   
    12    9   10 2   
    13    9   19 1   
    14   11   12 1   
    15   11   17 1   
    16   11   18 1   
    17   12   13 1   
    18   12   14 1   
    19   19   20 1   
    20   19   28 1   
    21   20   21 1   
    22   20   23 1   
    23   20   29 1   
    24   21   22 2   
    25   21   41 1   
    26   23   24 1   
    27   23   30 1   
    28   23   31 1   
    29   24   25 1   
    30   24   32 1   
    31   24   33 1   
    32   25   26 1   
    33   25   34 1   
    34   25   35 1   
    35   26   27 1   
    36   26   36 1   
    37   26   37 1   
    38   27   38 1   
    39   27   39 1   
    40   27   40 1   
    41   41   42 1   
    42   41   49 1   
    43   42   43 1   
    44   42   45 1   
    45   42   50 1   
    46   43   44 2   
    47   43   53 1   
    48   45   46 1   
    49   45   51 1   
    50   45   52 1   
    51   46   47 1   
    52   46   48 1   
    53   53   54 1   
    54   53   57 1   
    55   54   55 1   
    56   54   58 1   
    57   54   59 1   
    58   55   56 2   
    59   55   60 1   
    60   60   61 1   
    61   60   68 1   
    62   61   62 1   
    63   61   64 1   
    64   61   69 1   
    65   62   63 2   
    66   62   72 1   
    67   64   65 1   
    68   64   70 1   
    69   64   71 1   
    70   65   66 1   
    71   65   67 1   
    72   72   73 1   
    73   72   76 1   
    74   73   74 1   
    75   73   77 1   
    76   73   78 1   
    77   74   75 2   
    78   74   79 1   
    79   79   80 1   
    80   79   86 1   
    81   80   81 1   
    82   80   83 1   
    83   80   87 1   
    84   81   82 2   
    85   81   93 1   
    86   83   84 1   
    87   83   85 1   
    88   83   88 1   
    89   84   90 1   
    90   84   91 1   
    91   84   92 1   
    92   85   89 1   
    93   93   94 1   
    94   93  101 1   
    95   94   95 1   
    96   94   97 1   
    97   94  102 1   
    98   95   96 2   
    99   95  112 1   
   100   97   98 1   
   101   97   99 1   
   102   97  103 1   
   103   98  100 1   
   104   98  104 1   
   105   98  105 1   
   106   99  106 1   
   107   99  107 1   
   108   99  108 1   
   109  100  109 1   
   110  100  110 1   
   111  100  111 1   
   112  112  113 1   
   113  112  119 1   
   114  113  114 1   
   115  113  116 1   
   116  113  120 1   
   117  114  115 2   
   118  114  126 1   
   119  116  117 1   
   120  116  118 1   
   121  116  121 1   
   122  117  123 1   
   123  117  124 1   
   124  117  125 1   
   125  118  122 1   
   126  126  127 1   
   127  126  133 1   
   128  127  128 1   
   129  127  130 1   
   130  127  134 1   
   131  128  129 2   
   132  128  140 1   
   133  130  131 1   
   134  130  132 1   
   135  130  135 1   
   136  131  137 1   
   137  131  138 1   
   138  131  139 1   
   139  132  136 1   
   140  140  141 1   
   141  140  149 1   
   142  141  142 1   
   143  141  144 1   
   144  141  150 1   
   145  142  143 2   
   146  142  162 1   
   147  144  145 1   
   148  144  151 1   
   149  144  152 1   
   150  145  146 1   
   151  145  153 1   
   152  145  154 1   
   153  146  147 1   
   154  146  155 1   
   155  146  156 1   
   156  147  148 1   
   157  147  157 1   
   158  147  158 1   
   159  148  159 1   
   160  148  160 1   
   161  148  161 1   
   162  162  163 1   
   163  162  171 1   
   164  163  164 1   
   165  163  166 1   
   166  163  172 1   
   167  164  165 2   
   168  164  177 1   
   169  166  167 1   
   170  166  173 1   
   171  166  174 1   
   172  167  168 1   
   173  167  175 1   
   174  167  176 1   
   175  168  169 1   
   176  168  170 1   
   177  177  178 1   
   178  177  182 1   
   179  178  179 1   
   180  178  180 1   
   181  178  181 1   
   182  184  185 1   
   183  184  186 1   
   184  187  188 1   
   185  187  189 1   
   186  190  191 1   
   187  190  192 1   
   188  193  194 1   
   189  193  195 1   
   190  196  197 1   
   191  196  198 1   
@<TRIPOS>SUBSTRUCTURE
     1 MOL         1 TEMP              0 ****  ****    0 ROOT
