@<TRIPOS>MOLECULE
MOL
  178   175     1     0     0
SMALL
resp


@<TRIPOS>ATOM
      1 C1          4.9190   -2.9970    3.0010 c3        1 MOL     -0.417583
      2 C2          6.0090   -1.9720    2.6760 c         1 MOL      0.773252
      3 O1          5.8800   -1.1890    1.7110 o         1 MOL     -0.604777
      4 H1          5.3810   -3.9540    3.2410 hc        1 MOL      0.107152
      5 H2          4.3370   -2.6510    3.8550 hc        1 MOL      0.107152
      6 H3          4.2630   -3.1160    2.1390 hc        1 MOL      0.107152
      7 N1          7.1990   -2.0510    3.2710 n         1 MOL     -0.648083
      8 C3          8.3590   -1.4360    2.5320 c3        1 MOL      0.183664
      9 C4          8.5040   -2.1870    1.1840 c         1 MOL      0.588054
     10 O2          8.8520   -3.3790    1.2200 o         1 MOL     -0.563347
     11 C5          9.6050   -1.5730    3.3880 c3        1 MOL     -0.338364
     12 C6          9.4760   -0.8610    4.8000 c         1 MOL      0.742079
     13 O3         10.1290   -1.3450    5.7600 o         1 MOL     -0.728542
     14 O4          8.9370    0.2430    4.8680 o         1 MOL     -0.728542
     15 H4          7.3890   -2.8110    3.9020 hn        1 MOL      0.360465
     16 H5          8.2020   -0.3820    2.3120 h1        1 MOL      0.045438
     17 H6         10.4440   -1.0600    2.9230 hc        1 MOL      0.065524
     18 H7          9.8450   -2.6160    3.6140 hc        1 MOL      0.065524
     19 N2          8.4130   -1.5030    0.0530 n         1 MOL     -0.639272
     20 C7          8.5560   -2.2320   -1.2660 c3        1 MOL      0.318089
     21 C8          7.2360   -2.2830   -2.0080 c         1 MOL      0.280837
     22 O5          7.1800   -2.4720   -3.2410 o         1 MOL     -0.516324
     23 C9          9.7050   -1.5700   -2.0160 c3        1 MOL     -0.286928
     24 H8          8.2190   -0.5220   -0.0310 hn        1 MOL      0.326708
     25 H9          8.8370   -3.2600   -1.0710 h1        1 MOL      0.053702
     26 H10        10.5450   -1.4580   -1.3320 hc        1 MOL      0.072218
     27 H11        10.0470   -2.0920   -2.9080 hc        1 MOL      0.072218
     28 H12         9.4360   -0.5570   -2.3120 hc        1 MOL      0.072218
     29 N3          6.1540   -2.0470   -1.3060 n         1 MOL     -0.128653
     30 C10         4.7850   -2.1570   -1.7260 c3        1 MOL     -0.017568
     31 C11         4.4230   -1.2890   -2.9740 c         1 MOL      0.540061
     32 O6          3.9570   -1.7810   -4.0240 o         1 MOL     -0.500677
     33 C12         4.3580   -3.6540   -1.7830 c3        1 MOL     -0.043686
     34 C13         2.8310   -3.8540   -2.0980 c         1 MOL      0.734976
     35 O7          2.4240   -4.9360   -2.5080 o         1 MOL     -0.769649
     36 O8          1.9950   -2.9460   -1.7990 o         1 MOL     -0.769649
     37 H13         6.2460   -1.7720   -0.3380 hn        1 MOL      0.161381
     38 H14         4.2210   -1.8370   -0.8540 h1        1 MOL      0.046169
     39 H15         4.6550   -4.0840   -0.8250 hc        1 MOL      0.009719
     40 H16         4.9820   -4.2370   -2.4620 hc        1 MOL      0.009719
     41 N4          4.7890    0.0060   -2.8820 n         1 MOL     -0.429816
     42 C14         5.0030    0.9350   -4.0120 c3        1 MOL      0.071509
     43 C15         4.1530    2.2600   -4.0370 c         1 MOL      0.485336
     44 O9          4.6080    3.3440   -4.4950 o         1 MOL     -0.593037
     45 H17         5.0660    0.4230   -2.0060 hn        1 MOL      0.259416
     46 H18         4.8710    0.4070   -4.9620 h1        1 MOL      0.048101
     47 H19         6.0620    1.1840   -4.0580 h1        1 MOL      0.048101
     48 N5          2.9210    2.2150   -3.6720 n         1 MOL     -0.284585
     49 C16         2.0630    3.3280   -3.6310 c3        1 MOL     -0.076742
     50 C17         2.2870    4.2900   -2.4790 c         1 MOL      0.651495
     51 O10         2.7260    3.9210   -1.3840 o         1 MOL     -0.540101
     52 C18         0.6440    2.7160   -3.6220 c3        1 MOL     -0.312288
     53 C19        -0.4510    3.6900   -3.9020 c         1 MOL      0.603144
     54 N6         -1.2700    4.0240   -2.9810 n         1 MOL     -0.673755
     55 O11        -0.7440    4.0870   -5.0450 o         1 MOL     -0.608026
     56 H20         2.5010    1.3770   -3.2860 hn        1 MOL      0.226013
     57 H21         2.2150    3.8700   -4.5630 h1        1 MOL      0.101054
     58 H22         0.5490    2.1190   -2.7160 hc        1 MOL      0.142404
     59 H23         0.6270    2.0120   -4.4560 hc        1 MOL      0.142404
     60 H24        -1.1510    3.6960   -2.0240 hn        1 MOL      0.337522
     61 H25        -2.0220    4.6570   -3.2270 hn        1 MOL      0.337522
     62 N7          2.0380    5.5740   -2.7270 n         1 MOL     -0.430744
     63 C20         2.0630    6.7030   -1.7730 c3        1 MOL     -0.011751
     64 C21         0.7550    6.8660   -0.9480 c         1 MOL      0.596847
     65 O12        -0.3090    6.6800   -1.5200 o         1 MOL     -0.522119
     66 H26         1.8090    5.7940   -3.6880 hn        1 MOL      0.280391
     67 H27         2.1360    7.6800   -2.2440 h1        1 MOL      0.053744
     68 H28         2.9190    6.7340   -1.0950 h1        1 MOL      0.053744
     69 N8          0.8090    7.1950    0.3410 n         1 MOL     -0.440709
     70 C22        -0.3970    7.5330    1.1690 c3        1 MOL     -0.429074
     71 C23        -1.1060    6.2910    1.6430 c         1 MOL      0.624397
     72 O13        -2.0480    6.4290    2.3320 o         1 MOL     -0.552114
     73 C24         0.0930    8.3900    2.2980 c3        1 MOL      0.394191
     74 C25         0.9320    7.7130    3.3150 c3        1 MOL     -0.000312
     75 O14         0.7400    9.5070    1.7640 oh        1 MOL     -0.611201
     76 H29         1.7070    7.3620    0.7610 hn        1 MOL      0.280687
     77 H30        -1.0590    8.2300    0.6480 h1        1 MOL      0.219037
     78 H31        -0.6900    8.7020    2.9880 h1        1 MOL      0.044144
     79 H32         1.4030    9.1440    1.1770 ho        1 MOL      0.360572
     80 H33         0.4580    7.6520    4.2990 hc        1 MOL     -0.002871
     81 H34         1.2830    6.7730    2.9050 hc        1 MOL     -0.002871
     82 H35         1.8410    8.2540    3.5960 hc        1 MOL     -0.002871
     83 N9         -0.6900    5.0780    1.2580 n         1 MOL     -0.241541
     84 C26        -1.0740    3.7600    1.7910 c3        1 MOL     -0.056347
     85 C27        -1.1630    2.6690    0.6920 c         1 MOL      0.392816
     86 O15        -0.5570    2.7320   -0.3630 o         1 MOL     -0.448772
     87 C28        -0.1660    3.3020    2.9430 c3        1 MOL      0.278785
     88 C29         1.3120    3.6010    2.8770 c3        1 MOL      0.007055
     89 C30        -0.8250    3.8490    4.1380 c3        1 MOL     -0.425286
     90 C31         2.1390    2.7370    3.7960 c3        1 MOL     -0.199044
     91 H36        -0.0260    4.9530    0.5030 hn        1 MOL      0.141427
     92 H37        -2.0840    4.0050    2.1230 h1        1 MOL      0.072013
     93 H38        -0.1990    2.2180    3.0040 hc        1 MOL     -0.031086
     94 H39         1.4520    4.6730    3.0250 hc        1 MOL      0.019102
     95 H40         1.5900    3.3100    1.8590 hc        1 MOL      0.019102
     96 H41        -0.7280    4.9400    4.1520 hc        1 MOL      0.090738
     97 H42        -1.8940    3.7860    4.3070 hc        1 MOL      0.090738
     98 H43        -0.3050    3.5690    5.0580 hc        1 MOL      0.090738
     99 H44         1.5260    2.0470    4.3840 hc        1 MOL      0.062171
    100 H45         2.8450    2.0990    3.2590 hc        1 MOL      0.062171
    101 H46         2.7080    3.1900    4.6090 hc        1 MOL      0.062171
    102 N10        -1.9010    1.5810    0.9340 n         1 MOL     -0.343951
    103 C32        -2.0620    0.3520    0.1900 c3        1 MOL      0.070477
    104 C33        -3.5380   -0.1150   -0.0310 c         1 MOL      0.568442
    105 O16        -3.7710   -1.3230   -0.1410 o         1 MOL     -0.512791
    106 C34        -1.1490   -0.7160    0.9200 c3        1 MOL     -0.082875
    107 C35        -0.6410   -1.9270    0.0440 c         1 MOL      0.769565
    108 O17        -0.7370   -1.9710   -1.1990 o         1 MOL     -0.749507
    109 O18        -0.1050   -2.8770    0.6280 o         1 MOL     -0.749507
    110 H47        -2.2740    1.6420    1.8740 hn        1 MOL      0.222972
    111 H48        -1.6740    0.4590   -0.8180 h1        1 MOL      0.038549
    112 H49        -1.7280   -1.1520    1.7330 hc        1 MOL      0.034717
    113 H50        -0.2320   -0.4280    1.4160 hc        1 MOL      0.034717
    114 N11        -4.5100    0.8170   -0.0280 n         1 MOL     -0.541527
    115 C36        -5.9130    0.5040   -0.4240 c3        1 MOL      0.352474
    116 C37        -6.5470   -0.4940    0.5680 c         1 MOL      0.136663
    117 O19        -6.2790   -0.3020    1.7890 o         1 MOL     -0.446615
    118 C38        -6.7160    1.7790   -0.5020 c3        1 MOL     -0.323944
    119 C39        -8.1310    1.5590   -0.9460 ca        1 MOL      0.076626
    120 C40        -8.4950    1.4920   -2.2900 ca        1 MOL     -0.133545
    121 C41        -9.1260    1.3490    0.0140 ca        1 MOL     -0.133545
    122 C42        -9.8600    1.2630   -2.7260 ca        1 MOL     -0.142528
    123 C43       -10.4750    1.0160   -0.3930 ca        1 MOL     -0.142528
    124 C44       -10.8300    1.0210   -1.7440 ca        1 MOL     -0.088767
    125 H51        -4.3550    1.8080    0.1150 hn        1 MOL      0.263949
    126 H52        -6.0000    0.0340   -1.3980 h1        1 MOL      0.017859
    127 H53        -6.2580    2.3400   -1.3190 hc        1 MOL      0.125339
    128 H54        -6.7290    2.3220    0.4490 hc        1 MOL      0.125339
    129 H55        -7.6840    1.7180   -2.9740 ha        1 MOL      0.118046
    130 H56        -8.7160    1.3900    1.0150 ha        1 MOL      0.118046
    131 H57        -9.9500    1.2570   -3.8020 ha        1 MOL      0.123496
    132 H58       -11.1090    0.7610    0.4530 ha        1 MOL      0.123496
    133 H59       -11.8620    0.9060   -2.0350 ha        1 MOL      0.105778
    134 N12        -7.2360   -1.6250    0.1830 n         1 MOL      0.008517
    135 C45        -7.8590   -2.5950    1.2070 c3        1 MOL     -0.016672
    136 C46        -6.9000   -3.3620    2.1500 c         1 MOL      0.188217
    137 O20        -7.2950   -3.8100    3.2410 o         1 MOL     -0.488689
    138 C47        -8.6540   -3.5400    0.3240 c3        1 MOL      0.129362
    139 C48        -8.9170   -2.9470   -1.0150 c3        1 MOL     -0.074332
    140 C49        -7.7180   -1.9780   -1.1780 c3        1 MOL     -0.039237
    141 H60        -8.5300   -2.0370    1.8630 h1        1 MOL      0.090567
    142 H61        -8.0370   -4.4160    0.1160 hc        1 MOL     -0.007116
    143 H62        -9.6000   -3.8810    0.7410 hc        1 MOL     -0.007116
    144 H63        -8.9860   -3.7710   -1.7250 hc        1 MOL      0.031943
    145 H64        -9.8930   -2.4760   -0.9460 hc        1 MOL      0.031943
    146 H65        -6.8810   -2.3880   -1.7310 h1        1 MOL      0.041067
    147 H66        -8.0020   -1.0850   -1.7310 h1        1 MOL      0.041067
    148 N13        -5.5890   -3.3380    1.8250 n         1 MOL     -0.025703
    149 C50        -4.5200   -3.9410    2.5720 c3        1 MOL     -0.098416
    150 C51        -3.9300   -3.0800    3.6820 c         1 MOL      0.425495
    151 O21        -3.2410   -3.6950    4.4790 o         1 MOL     -0.518709
    152 C52        -3.3650   -4.4520    1.7270 c3        1 MOL      0.111488
    153 C53        -3.7860   -5.5310    0.6920 c3        1 MOL     -0.289005
    154 C54        -2.7390   -5.6310   -0.3920 c         1 MOL      0.700556
    155 O22        -2.7600   -5.0070   -1.5010 o         1 MOL     -0.767874
    156 O23        -1.6390   -6.1330   -0.0840 o         1 MOL     -0.767874
    157 H67        -5.3890   -3.0620    0.8790 hn        1 MOL      0.203486
    158 H68        -4.9910   -4.8570    2.9490 h1        1 MOL      0.077452
    159 H69        -2.6130   -4.8540    2.4020 hc        1 MOL      0.026236
    160 H70        -2.9680   -3.5810    1.2010 hc        1 MOL      0.026236
    161 H71        -4.7480   -5.3390    0.2150 hc        1 MOL      0.062509
    162 H72        -3.7170   -6.5000    1.1900 hc        1 MOL      0.062509
    163 N14        -4.2440   -1.7410    3.6820 n         1 MOL     -0.099077
    164 C55        -4.0080   -0.8480    4.8780 c3        1 MOL     -0.372739
    165 H73        -4.0180    0.1940    4.5600 h1        1 MOL      0.131663
    166 H74        -4.7950   -1.0110    5.6140 h1        1 MOL      0.131663
    167 H75        -3.0410   -1.0830    5.3210 h1        1 MOL      0.131663
    168 H76        -4.8010   -1.3830    2.9310 hn        1 MOL      0.162795
    169 Ca1        -0.0900   -4.3840   -1.5240 Ca        1 MOL      1.730752
    170 O24         1.5790   -5.2500    0.4780 oh        1 MOL     -0.750181
    171 H77         1.4170   -4.8190    1.3170 ho        1 MOL      0.379238
    172 H78         1.7550   -6.1610    0.7080 ho        1 MOL      0.379238
    173 O25        -1.0490   -3.5560   -4.0200 oh        1 MOL     -0.750181
    174 H79        -0.4180   -2.8880   -4.3000 ho        1 MOL      0.379238
    175 H80        -1.8960   -3.1450   -4.1640 ho        1 MOL      0.379238
    176 O26        -0.2900   -6.3900   -3.4100 oh        1 MOL     -0.750181
    177 H81        -0.1170   -7.3110   -3.1810 ho        1 MOL      0.379238
    178 H82        -0.3320   -6.3950   -4.3730 ho        1 MOL      0.379238
@<TRIPOS>BOND
     1    1    2 1   
     2    1    4 1   
     3    1    5 1   
     4    1    6 1   
     5    2    3 2   
     6    2    7 1   
     7    7    8 1   
     8    7   15 1   
     9    8    9 1   
    10    8   11 1   
    11    8   16 1   
    12    9   10 2   
    13    9   19 1   
    14   11   12 1   
    15   11   17 1   
    16   11   18 1   
    17   12   13 1   
    18   12   14 1   
    19   19   20 1   
    20   19   24 1   
    21   20   21 1   
    22   20   23 1   
    23   20   25 1   
    24   21   22 2   
    25   21   29 1   
    26   23   26 1   
    27   23   27 1   
    28   23   28 1   
    29   29   30 1   
    30   29   37 1   
    31   30   31 1   
    32   30   33 1   
    33   30   38 1   
    34   31   32 2   
    35   31   41 1   
    36   33   34 1   
    37   33   39 1   
    38   33   40 1   
    39   34   35 1   
    40   34   36 1   
    41   41   42 1   
    42   41   45 1   
    43   42   43 1   
    44   42   46 1   
    45   42   47 1   
    46   43   44 2   
    47   43   48 1   
    48   48   49 1   
    49   48   56 1   
    50   49   50 1   
    51   49   52 1   
    52   49   57 1   
    53   50   51 2   
    54   50   62 1   
    55   52   53 1   
    56   52   58 1   
    57   52   59 1   
    58   53   54 1   
    59   53   55 2   
    60   54   60 1   
    61   54   61 1   
    62   62   63 1   
    63   62   66 1   
    64   63   64 1   
    65   63   67 1   
    66   63   68 1   
    67   64   65 2   
    68   64   69 1   
    69   69   70 1   
    70   69   76 1   
    71   70   71 1   
    72   70   73 1   
    73   70   77 1   
    74   71   72 2   
    75   71   83 1   
    76   73   74 1   
    77   73   75 1   
    78   73   78 1   
    79   74   80 1   
    80   74   81 1   
    81   74   82 1   
    82   75   79 1   
    83   83   84 1   
    84   83   91 1   
    85   84   85 1   
    86   84   87 1   
    87   84   92 1   
    88   85   86 2   
    89   85  102 1   
    90   87   88 1   
    91   87   89 1   
    92   87   93 1   
    93   88   90 1   
    94   88   94 1   
    95   88   95 1   
    96   89   96 1   
    97   89   97 1   
    98   89   98 1   
    99   90   99 1   
   100   90  100 1   
   101   90  101 1   
   102  102  103 1   
   103  102  110 1   
   104  103  104 1   
   105  103  106 1   
   106  103  111 1   
   107  104  105 2   
   108  104  114 1   
   109  106  107 1   
   110  106  112 1   
   111  106  113 1   
   112  107  108 1   
   113  107  109 1   
   114  114  115 1   
   115  114  125 1   
   116  115  116 1   
   117  115  118 1   
   118  115  126 1   
   119  116  117 2   
   120  116  134 1   
   121  118  119 1   
   122  118  127 1   
   123  118  128 1   
   124  119  120 ar  
   125  119  121 ar  
   126  120  122 ar  
   127  120  129 1   
   128  121  123 ar  
   129  121  130 1   
   130  122  124 ar  
   131  122  131 1   
   132  123  124 ar  
   133  123  132 1   
   134  124  133 1   
   135  134  135 1   
   136  134  140 1   
   137  135  136 1   
   138  135  138 1   
   139  135  141 1   
   140  136  137 2   
   141  136  148 1   
   142  138  139 1   
   143  138  142 1   
   144  138  143 1   
   145  139  140 1   
   146  139  144 1   
   147  139  145 1   
   148  140  146 1   
   149  140  147 1   
   150  148  149 1   
   151  148  157 1   
   152  149  150 1   
   153  149  152 1   
   154  149  158 1   
   155  150  151 2   
   156  150  163 1   
   157  152  153 1   
   158  152  159 1   
   159  152  160 1   
   160  153  154 1   
   161  153  161 1   
   162  153  162 1   
   163  154  155 1   
   164  154  156 1   
   165  163  164 1   
   166  163  168 1   
   167  164  165 1   
   168  164  166 1   
   169  164  167 1   
   170  170  171 1   
   171  170  172 1   
   172  173  174 1   
   173  173  175 1   
   174  176  177 1   
   175  176  178 1   
@<TRIPOS>SUBSTRUCTURE
     1 MOL         1 TEMP              0 ****  ****    0 ROOT
