@<TRIPOS>MOLECULE
MOL
  198   191     1     0     0
SMALL
resp


@<TRIPOS>ATOM
      1 C1          5.0080   -3.0790   -2.2930 c3        1 MOL     -0.024836
      2 C2          4.1530   -3.8090   -1.2370 c         1 MOL      0.521962
      3 O1          3.6000   -3.1040   -0.3440 o         1 MOL     -0.534198
      4 H1          4.8470   -3.5360   -3.2690 hc        1 MOL     -0.028537
      5 H2          4.7200   -2.0280   -2.3320 hc        1 MOL     -0.028537
      6 H3          6.0620   -3.1580   -2.0250 hc        1 MOL     -0.028537
      7 N1          4.1140   -5.1360   -1.3110 n         1 MOL     -0.548029
      8 C3          3.3120   -6.0810   -0.4600 c3        1 MOL      0.070405
      9 C4          1.9130   -5.5980   -0.1750 c         1 MOL      0.863213
     10 O2          1.5840   -4.8290    0.6980 o         1 MOL     -0.570147
     11 C5          4.1870   -6.4030    0.7870 c3        1 MOL     -0.426001
     12 C6          3.6520   -7.5450    1.6670 c         1 MOL      0.669581
     13 O3          4.1970   -7.6940    2.7900 o         1 MOL     -0.686165
     14 O4          2.6140   -8.1840    1.2640 o         1 MOL     -0.686165
     15 H4          4.6450   -5.5730   -2.0540 hn        1 MOL      0.316012
     16 H5          3.2360   -6.9820   -1.0700 h1        1 MOL      0.087134
     17 H6          4.4320   -5.5180    1.3690 hc        1 MOL      0.111013
     18 H7          5.1350   -6.7980    0.4230 hc        1 MOL      0.111013
     19 N2          0.9620   -6.0440   -1.0510 n         1 MOL     -0.725362
     20 C7         -0.3830   -5.5380   -1.3330 c3        1 MOL      0.367387
     21 C8         -1.3390   -6.6920   -1.4480 c         1 MOL      0.540906
     22 O5         -0.8670   -7.7820   -1.8110 o         1 MOL     -0.596512
     23 C9         -0.1980   -4.6310   -2.5760 c3        1 MOL     -0.045566
     24 C10         0.7070   -5.2550   -3.7440 c3        1 MOL      0.170982
     25 C11         0.2300   -3.2410   -2.1080 c3        1 MOL     -0.511725
     26 C12         0.0950   -6.3460   -4.6390 c3        1 MOL     -0.334816
     27 H8          1.2960   -6.6360   -1.7970 hn        1 MOL      0.265732
     28 H9         -0.6960   -4.9160   -0.5010 h1        1 MOL      0.016075
     29 H10        -1.1630   -4.4160   -3.0360 hc        1 MOL      0.028263
     30 H11         1.6710   -5.5450   -3.3500 hc        1 MOL     -0.029899
     31 H12         1.0070   -4.4900   -4.4590 hc        1 MOL     -0.029899
     32 H13         0.8020   -2.7050   -2.8690 hc        1 MOL      0.162025
     33 H14        -0.6410   -2.6650   -1.8000 hc        1 MOL      0.162025
     34 H15         0.7940   -3.3150   -1.1810 hc        1 MOL      0.162025
     35 H16        -0.9560   -6.1780   -4.8820 hc        1 MOL      0.072244
     36 H17         0.7200   -6.4300   -5.5220 hc        1 MOL      0.072244
     37 H18         0.0440   -7.2660   -4.0590 hc        1 MOL      0.072244
     38 N3         -2.6370   -6.6690   -1.2670 n         1 MOL     -0.471986
     39 C13        -3.4910   -5.5120   -0.9090 c3        1 MOL     -0.063779
     40 C14        -4.3560   -5.9560    0.2890 c         1 MOL      0.376753
     41 O6         -5.2850   -6.8250    0.1240 o         1 MOL     -0.510709
     42 C15        -4.3680   -5.3420   -2.1520 c3        1 MOL     -0.262511
     43 C16        -5.5080   -4.4310   -2.0660 c         1 MOL      0.782489
     44 O7         -6.2520   -4.2870   -3.0870 o         1 MOL     -0.703826
     45 O8         -5.7200   -3.7250   -1.0530 o         1 MOL     -0.703826
     46 H19        -3.0920   -7.5500   -1.4630 hn        1 MOL      0.329223
     47 H20        -2.9610   -4.6190   -0.5720 h1        1 MOL      0.104476
     48 H21        -4.6130   -6.2270   -2.7340 hc        1 MOL      0.085230
     49 H22        -3.6630   -4.9180   -2.8600 hc        1 MOL      0.085230
     50 N4         -4.1800   -5.3310    1.4280 n         1 MOL     -0.214800
     51 C17        -4.9120   -5.5780    2.6790 c3        1 MOL     -0.079047
     52 C18        -5.7600   -4.3680    3.1280 c         1 MOL      0.545651
     53 O9         -6.0470   -4.1730    4.3460 o         1 MOL     -0.589384
     54 H23        -3.3490   -4.7780    1.5290 hn        1 MOL      0.262498
     55 H24        -4.1860   -5.7710    3.4670 h1        1 MOL      0.074310
     56 H25        -5.5850   -6.4230    2.5420 h1        1 MOL      0.074310
     57 N5         -6.1380   -3.4180    2.2080 n         1 MOL     -0.378255
     58 C19        -6.7900   -2.1140    2.5370 c3        1 MOL     -0.040302
     59 C20        -7.6340   -1.4460    1.4110 c         1 MOL      0.398339
     60 O10        -8.8170   -1.2020    1.6360 o         1 MOL     -0.533575
     61 C21        -5.7850   -1.1020    3.1310 c3        1 MOL     -0.126885
     62 C22        -4.6780   -0.8360    2.1490 c         1 MOL      0.707936
     63 O11        -3.6740   -1.5530    2.1060 o         1 MOL     -0.678121
     64 O12        -4.7750    0.1740    1.4510 o         1 MOL     -0.678121
     65 H26        -5.8190   -3.6460    1.2760 hn        1 MOL      0.256889
     66 H27        -7.4190   -2.3920    3.3790 h1        1 MOL      0.093095
     67 H28        -5.3610   -1.5160    4.0410 hc        1 MOL      0.038028
     68 H29        -6.3990   -0.2240    3.3620 hc        1 MOL      0.038028
     69 N6         -7.0760   -1.4060    0.1490 n         1 MOL     -0.045292
     70 C23        -7.6690   -0.6430   -1.0050 c3        1 MOL     -0.341326
     71 C24        -7.8420    0.8850   -0.8460 c         1 MOL      0.510113
     72 O13        -8.6810    1.5220   -1.5370 o         1 MOL     -0.564015
     73 H30        -6.2910   -2.0290    0.0570 hn        1 MOL      0.184812
     74 H31        -8.6070   -1.1580   -1.1780 h1        1 MOL      0.146824
     75 H32        -7.0120   -0.7530   -1.8740 h1        1 MOL      0.146824
     76 N7         -7.1030    1.4310    0.1390 n         1 MOL     -0.031093
     77 C25        -7.0660    2.8250    0.5020 c3        1 MOL     -0.120169
     78 C26        -6.7400    3.7960   -0.7040 c         1 MOL      0.605872
     79 O14        -7.3110    4.8890   -0.8300 o         1 MOL     -0.519399
     80 C27        -8.2030    3.0960    1.4570 c3        1 MOL      0.063921
     81 C28        -8.2690    2.1840    2.7450 c3        1 MOL     -0.094271
     82 C29        -9.0070    2.8790    3.8820 c         1 MOL      0.611066
     83 N8         -9.8200    2.1940    4.5980 n         1 MOL     -0.740091
     84 O15        -8.7560    3.9900    4.2220 o         1 MOL     -0.580302
     85 H33        -6.4480    0.9750    0.7420 hn        1 MOL      0.058399
     86 H34        -6.1770    2.8000    1.1250 h1        1 MOL      0.111078
     87 H35        -9.1990    2.9620    1.0120 hc        1 MOL      0.000351
     88 H36        -8.1480    4.1580    1.6710 hc        1 MOL      0.000351
     89 H37        -7.2570    1.9240    3.0780 hc        1 MOL      0.034582
     90 H38        -8.8120    1.2820    2.4810 hc        1 MOL      0.034582
     91 H39        -9.9950    1.2170    4.4120 hn        1 MOL      0.335952
     92 H40       -10.1200    2.6950    5.4220 hn        1 MOL      0.335952
     93 N9         -5.9050    3.3280   -1.6500 n         1 MOL     -0.612924
     94 C30        -5.4810    4.1090   -2.8780 c3        1 MOL     -0.053035
     95 C31        -3.9370    4.0250   -3.1550 c         1 MOL      0.533442
     96 O16        -3.5300    4.7820   -4.0090 o         1 MOL     -0.566594
     97 C32        -6.2890    3.6800   -4.1640 c3        1 MOL      0.128244
     98 C33        -6.1810    2.1540   -4.3480 c3        1 MOL     -0.288571
     99 C34        -7.8090    3.9900   -4.0380 c3        1 MOL     -0.288571
    100 H41        -5.5570    2.3920   -1.5150 hn        1 MOL      0.290866
    101 H42        -5.6060    5.1650   -2.6520 h1        1 MOL      0.134089
    102 H43        -5.9560    4.2630   -5.0270 hc        1 MOL      0.021813
    103 H44        -5.1570    1.7730   -4.3770 hc        1 MOL      0.079160
    104 H45        -6.6600    1.7430   -3.4570 hc        1 MOL      0.079160
    105 H46        -6.6730    1.7880   -5.2430 hc        1 MOL      0.079160
    106 H47        -7.9730    5.0570   -3.9050 hc        1 MOL      0.079160
    107 H48        -8.3340    3.7200   -4.9530 hc        1 MOL      0.079160
    108 H49        -8.1620    3.6160   -3.0760 hc        1 MOL      0.079160
    109 N10        -3.2730    3.0380   -2.5850 n         1 MOL     -0.279310
    110 C35        -1.8220    2.8390   -2.5580 c3        1 MOL      0.193528
    111 C36        -1.1720    3.2000   -1.2270 c         1 MOL      0.481280
    112 O17        -1.8780    3.5600   -0.2560 o         1 MOL     -0.528036
    113 C37        -1.5110    1.3650   -3.0050 c3        1 MOL     -0.438739
    114 C38        -0.0570    0.9000   -2.8430 c         1 MOL      0.718429
    115 N11         0.2140   -0.0370   -1.9190 n         1 MOL     -0.731313
    116 O18         0.8670    1.3320   -3.5260 o         1 MOL     -0.571544
    117 H50        -3.7460    2.4590   -1.9090 hn        1 MOL      0.236047
    118 H51        -1.4450    3.5840   -3.2580 h1        1 MOL      0.067450
    119 H52        -1.8850    1.1840   -4.0050 hc        1 MOL      0.110535
    120 H53        -2.0660    0.7480   -2.2990 hc        1 MOL      0.110535
    121 H54        -0.5830   -0.3870   -1.3970 hn        1 MOL      0.351313
    122 H55         1.1640   -0.1990   -1.6300 hn        1 MOL      0.351313
    123 N12         0.1520    3.3420   -1.1200 n         1 MOL     -0.545430
    124 C39         0.8300    3.9040    0.0280 c3        1 MOL      0.279072
    125 C40         2.2180    4.4480   -0.4470 c         1 MOL      0.558495
    126 O19         2.7750    4.0520   -1.4490 o         1 MOL     -0.586826
    127 C41         1.1000    2.7910    1.0690 c3        1 MOL      0.053889
    128 C42         1.0050    3.2930    2.5380 ca        1 MOL     -0.228998
    129 C43         2.0640    3.6120    3.2970 ca        1 MOL      0.031792
    130 C44        -0.2680    3.1350    3.1410 ca        1 MOL      0.031792
    131 C45         1.9590    4.0300    4.6430 ca        1 MOL     -0.388213
    132 C46        -0.4780    3.6940    4.4250 ca        1 MOL     -0.388213
    133 C47         0.6330    4.1980    5.1900 ca        1 MOL      0.440545
    134 O20         0.4900    4.6780    6.4480 oh        1 MOL     -0.516630
    135 H56         0.7160    3.0610   -1.9080 hn        1 MOL      0.249078
    136 H57         0.3910    4.8000    0.4580 h1        1 MOL      0.040751
    137 H58         2.0920    2.3860    0.8840 hc        1 MOL      0.032219
    138 H59         0.4760    1.9040    1.0350 hc        1 MOL      0.032219
    139 H60         3.0370    3.5170    2.8480 ha        1 MOL      0.116035
    140 H61        -1.0250    2.7000    2.5090 ha        1 MOL      0.116035
    141 H62         2.8800    4.3090    5.1450 ha        1 MOL      0.170438
    142 H63        -1.4330    3.7180    4.9350 ha        1 MOL      0.170438
    143 H64         1.2400    4.6040    7.0510 ho        1 MOL      0.358740
    144 N13         2.8600    5.2850    0.3780 n         1 MOL     -0.531379
    145 C48         4.1950    5.8620    0.1810 c3        1 MOL      0.050044
    146 C49         5.3890    5.1860    0.9490 c         1 MOL      0.450337
    147 O21         5.5520    5.5250    2.1440 o         1 MOL     -0.575586
    148 C50         4.1650    7.3440    0.4920 c3        1 MOL      0.057758
    149 C51         3.3760    8.2980   -0.4440 c3        1 MOL     -0.229524
    150 C52         3.6750    9.8070   -0.0940 c         1 MOL      0.668016
    151 O22         3.1110   10.3660    0.9060 o         1 MOL     -0.663817
    152 O23         4.5440   10.3980   -0.7940 o         1 MOL     -0.663817
    153 H65         2.4050    5.5260    1.2530 hn        1 MOL      0.280620
    154 H66         4.4950    5.7860   -0.8610 h1        1 MOL      0.149689
    155 H67         5.1780    7.7280    0.5740 hc        1 MOL      0.036165
    156 H68         3.7900    7.5050    1.5040 hc        1 MOL      0.036165
    157 H69         2.2900    8.1840   -0.3980 hc        1 MOL      0.030973
    158 H70         3.7580    8.0290   -1.4260 hc        1 MOL      0.030973
    159 N14         6.1570    4.2810    0.3740 n         1 MOL     -0.482279
    160 C53         5.9800    3.5770   -0.8890 c3        1 MOL      0.019753
    161 C54         6.3490    4.3850   -2.0920 c         1 MOL      0.352376
    162 O24         7.0540    5.4530   -2.0270 o         1 MOL     -0.500259
    163 C55         6.7530    2.2320   -0.8090 c3        1 MOL      0.132181
    164 C56         6.1580    1.2930    0.2340 c3        1 MOL      0.051742
    165 C57         6.9260   -0.0220    0.3540 c         1 MOL      0.700693
    166 O25         7.7000   -0.3990   -0.5220 o         1 MOL     -0.735275
    167 O26         6.9590   -0.6320    1.4240 o         1 MOL     -0.735275
    168 H71         6.9460    4.0120    0.9490 hn        1 MOL      0.337842
    169 H72         4.9440    3.2530   -1.0400 h1        1 MOL      0.159042
    170 H73         7.8210    2.3570   -0.6500 hc        1 MOL     -0.063207
    171 H74         6.6860    1.6820   -1.7470 hc        1 MOL     -0.063207
    172 H75         5.1230    1.1560   -0.0910 hc        1 MOL     -0.031274
    173 H76         6.2080    1.7860    1.2110 hc        1 MOL     -0.031274
    174 N15         5.7960    4.0230   -3.2790 n         1 MOL     -0.277934
    175 C58         5.9020    4.7040   -4.6210 c3        1 MOL     -0.178538
    176 H77         5.8100    3.9600   -5.4130 h1        1 MOL      0.096047
    177 H78         5.1030    5.4390   -4.7210 h1        1 MOL      0.096047
    178 H79         6.8670    5.2020   -4.7010 h1        1 MOL      0.096047
    179 H80         5.1270    3.2690   -3.2980 hn        1 MOL      0.273726
    180 Ca1         8.7090   -2.3910    0.7580 Ca        1 MOL      1.753570
    181 O27        11.0910   -2.9920    2.1730 oh        1 MOL     -0.807804
    182 O28        10.2760   -0.1510    1.7090 oh        1 MOL     -0.807804
    183 H81        11.2070   -3.8970    2.4620 ho        1 MOL      0.375633
    184 H82        10.0290    0.7320    1.4240 ho        1 MOL      0.375633
    185 H83        11.9670   -2.6070    2.2550 ho        1 MOL      0.375633
    186 H84        11.1840   -0.0660    1.9820 ho        1 MOL      0.375633
    187 O29        10.7530   -1.9780   -0.8050 oh        1 MOL     -0.807804
    188 H85        11.6480   -1.9010   -0.4590 ho        1 MOL      0.375633
    189 H86        10.6120   -1.1600   -1.2950 ho        1 MOL      0.375633
    190 O30         8.4240   -2.8570    3.4560 oh        1 MOL     -0.807804
    191 H87         7.5950   -2.9620    3.9170 ho        1 MOL      0.375633
    192 H88         9.0980   -3.0800    4.0970 ho        1 MOL      0.375633
    193 O31         6.8220   -4.2590    1.3100 oh        1 MOL     -0.807804
    194 H89         6.0030   -3.7750    1.4490 ho        1 MOL      0.375633
    195 H90         6.6270   -5.1450    1.5990 ho        1 MOL      0.375633
    196 O32         9.7480   -4.9660    0.4980 oh        1 MOL     -0.807804
    197 H91         9.6810   -5.5800   -0.2320 ho        1 MOL      0.375633
    198 H92         9.4230   -5.4510    1.2560 ho        1 MOL      0.375633
@<TRIPOS>BOND
     1    1    2 1   
     2    1    4 1   
     3    1    5 1   
     4    1    6 1   
     5    2    3 2   
     6    2    7 1   
     7    7    8 1   
     8    7   15 1   
     9    8    9 1   
    10    8   11 1   
    11    8   16 1   
    12    9   10 2   
    13    9   19 1   
    14   11   12 1   
    15   11   17 1   
    16   11   18 1   
    17   12   13 1   
    18   12   14 1   
    19   19   20 1   
    20   19   27 1   
    21   20   21 1   
    22   20   23 1   
    23   20   28 1   
    24   21   22 2   
    25   21   38 1   
    26   23   24 1   
    27   23   25 1   
    28   23   29 1   
    29   24   26 1   
    30   24   30 1   
    31   24   31 1   
    32   25   32 1   
    33   25   33 1   
    34   25   34 1   
    35   26   35 1   
    36   26   36 1   
    37   26   37 1   
    38   38   39 1   
    39   38   46 1   
    40   39   40 1   
    41   39   42 1   
    42   39   47 1   
    43   40   41 2   
    44   40   50 1   
    45   42   43 1   
    46   42   48 1   
    47   42   49 1   
    48   43   44 1   
    49   43   45 1   
    50   50   51 1   
    51   50   54 1   
    52   51   52 1   
    53   51   55 1   
    54   51   56 1   
    55   52   53 2   
    56   52   57 1   
    57   57   58 1   
    58   57   65 1   
    59   58   59 1   
    60   58   61 1   
    61   58   66 1   
    62   59   60 2   
    63   59   69 1   
    64   61   62 1   
    65   61   67 1   
    66   61   68 1   
    67   62   63 1   
    68   62   64 1   
    69   69   70 1   
    70   69   73 1   
    71   70   71 1   
    72   70   74 1   
    73   70   75 1   
    74   71   72 2   
    75   71   76 1   
    76   76   77 1   
    77   76   85 1   
    78   77   78 1   
    79   77   80 1   
    80   77   86 1   
    81   78   79 2   
    82   78   93 1   
    83   80   81 1   
    84   80   87 1   
    85   80   88 1   
    86   81   82 1   
    87   81   89 1   
    88   81   90 1   
    89   82   83 1   
    90   82   84 2   
    91   83   91 1   
    92   83   92 1   
    93   93   94 1   
    94   93  100 1   
    95   94   95 1   
    96   94   97 1   
    97   94  101 1   
    98   95   96 2   
    99   95  109 1   
   100   97   98 1   
   101   97   99 1   
   102   97  102 1   
   103   98  103 1   
   104   98  104 1   
   105   98  105 1   
   106   99  106 1   
   107   99  107 1   
   108   99  108 1   
   109  109  110 1   
   110  109  117 1   
   111  110  111 1   
   112  110  113 1   
   113  110  118 1   
   114  111  112 2   
   115  111  123 1   
   116  113  114 1   
   117  113  119 1   
   118  113  120 1   
   119  114  115 1   
   120  114  116 2   
   121  115  121 1   
   122  115  122 1   
   123  123  124 1   
   124  123  135 1   
   125  124  125 1   
   126  124  127 1   
   127  124  136 1   
   128  125  126 2   
   129  125  144 1   
   130  127  128 1   
   131  127  137 1   
   132  127  138 1   
   133  128  129 ar  
   134  128  130 ar  
   135  129  131 ar  
   136  129  139 1   
   137  130  132 ar  
   138  130  140 1   
   139  131  133 ar  
   140  131  141 1   
   141  132  133 ar  
   142  132  142 1   
   143  133  134 1   
   144  134  143 1   
   145  144  145 1   
   146  144  153 1   
   147  145  146 1   
   148  145  148 1   
   149  145  154 1   
   150  146  147 2   
   151  146  159 1   
   152  148  149 1   
   153  148  155 1   
   154  148  156 1   
   155  149  150 1   
   156  149  157 1   
   157  149  158 1   
   158  150  151 1   
   159  150  152 1   
   160  159  160 1   
   161  159  168 1   
   162  160  161 1   
   163  160  163 1   
   164  160  169 1   
   165  161  162 2   
   166  161  174 1   
   167  163  164 1   
   168  163  170 1   
   169  163  171 1   
   170  164  165 1   
   171  164  172 1   
   172  164  173 1   
   173  165  166 1   
   174  165  167 1   
   175  174  175 1   
   176  174  179 1   
   177  175  176 1   
   178  175  177 1   
   179  175  178 1   
   180  181  183 1   
   181  181  185 1   
   182  182  184 1   
   183  182  186 1   
   184  187  188 1   
   185  187  189 1   
   186  190  191 1   
   187  190  192 1   
   188  193  194 1   
   189  193  195 1   
   190  196  197 1   
   191  196  198 1   
@<TRIPOS>SUBSTRUCTURE
     1 MOL         1 TEMP              0 ****  ****    0 ROOT
