@<TRIPOS>MOLECULE
MOL
  191   184     1     0     0
SMALL
resp


@<TRIPOS>ATOM
      1 C1          0.7500    1.1630    2.4270 c3        1 MOL     -0.327779
      2 C2          2.1480    1.4320    1.7580 c         1 MOL      0.697835
      3 O1          2.1390    2.1570    0.7410 o         1 MOL     -0.593658
      4 H1          0.2720    0.3130    1.9390 hc        1 MOL      0.083250
      5 H2          0.8890    0.9420    3.4850 hc        1 MOL      0.083250
      6 H3          0.1190    2.0450    2.3190 hc        1 MOL      0.083250
      7 N1          3.2790    0.8740    2.1820 n         1 MOL     -0.619214
      8 C3          4.5590    1.2340    1.6230 c3        1 MOL      0.100413
      9 C4          5.3730    0.0470    1.2180 c         1 MOL      0.387721
     10 O2          6.4140    0.2170    0.5370 o         1 MOL     -0.411105
     11 C5          5.2590    2.3340    2.4910 c3        1 MOL     -0.107214
     12 C6          5.5560    2.0210    3.9730 c         1 MOL      0.638995
     13 O3          5.2510    0.8640    4.4110 o         1 MOL     -0.674780
     14 O4          6.0750    2.8630    4.7210 o         1 MOL     -0.674780
     15 H4          3.2640    0.3270    3.0340 hn        1 MOL      0.307197
     16 H5          4.3470    1.8920    0.7790 h1        1 MOL      0.126467
     17 H6          4.5670    3.1710    2.5000 hc        1 MOL      0.066259
     18 H7          6.1520    2.6090    1.9390 hc        1 MOL      0.066259
     19 N2          4.9990   -1.1590    1.6740 n         1 MOL     -0.348354
     20 C7          5.8020   -2.4690    1.4910 c3        1 MOL     -0.014616
     21 C8          6.2290   -2.5820   -0.0000 c         1 MOL      0.529388
     22 O5          7.4030   -2.7410   -0.3270 o         1 MOL     -0.548274
     23 C9          6.9820   -2.5150    2.5900 c3        1 MOL     -0.172783
     24 C10         6.5180   -2.6950    4.0750 c3        1 MOL      0.094018
     25 C11         7.6560   -2.2490    5.0490 c3        1 MOL     -0.168760
     26 C12         6.8890   -1.8280    6.3330 c3        1 MOL      0.110114
     27 N3          6.8490   -0.3500    6.3840 n4        1 MOL     -0.259651
     28 H8          4.0930   -1.2380    2.1110 hn        1 MOL      0.217849
     29 H9          5.1620   -3.3390    1.4750 h1        1 MOL      0.076238
     30 H10         7.5490   -1.6100    2.3990 hc        1 MOL      0.082886
     31 H11         7.6770   -3.3110    2.3280 hc        1 MOL      0.082886
     32 H12         6.2970   -3.7460    4.2680 hc        1 MOL      0.013019
     33 H13         5.6760   -2.0430    4.3130 hc        1 MOL      0.013019
     34 H14         8.1830   -1.4080    4.5880 hc        1 MOL      0.074560
     35 H15         8.3040   -3.0820    5.3160 hc        1 MOL      0.074560
     36 H16         7.3670   -2.1620    7.2530 hx        1 MOL      0.029957
     37 H17         5.8610   -2.1870    6.2690 hx        1 MOL      0.029957
     38 H18         7.7640    0.0670    6.5010 hn        1 MOL      0.280078
     39 H19         6.3170    0.0360    5.6180 hn        1 MOL      0.280078
     40 H20         6.3710   -0.0610    7.2260 hn        1 MOL      0.280078
     41 N4          5.3260   -2.2890   -0.9150 n         1 MOL     -0.433590
     42 C13         5.7040   -2.0330   -2.3630 c3        1 MOL      0.263806
     43 C14         5.2250   -0.6750   -2.8440 c         1 MOL      0.416889
     44 O6          4.8790   -0.4590   -4.0370 o         1 MOL     -0.546456
     45 C15         5.2180   -3.2400   -3.2370 c3        1 MOL     -0.292235
     46 C16         3.8000   -3.6430   -2.9000 c         1 MOL      0.716158
     47 O7          2.8310   -2.9410   -3.2040 o         1 MOL     -0.721700
     48 O8          3.5290   -4.5650   -2.1340 o         1 MOL     -0.721700
     49 H21         4.3590   -2.1740   -0.6650 hn        1 MOL      0.313596
     50 H22         6.7950   -1.9570   -2.3950 h1        1 MOL      0.062550
     51 H23         5.9570   -4.0320   -3.1120 hc        1 MOL      0.057364
     52 H24         5.2990   -2.8310   -4.2460 hc        1 MOL      0.057364
     53 N5          5.1640    0.2700   -1.9240 n         1 MOL     -0.261449
     54 C17         4.6800    1.6990   -2.1390 c3        1 MOL      0.007212
     55 C18         5.8470    2.6740   -1.9600 c         1 MOL      0.466614
     56 O9          7.0220    2.3150   -2.0100 o         1 MOL     -0.519464
     57 H25         5.5330   -0.0270   -1.0350 hn        1 MOL      0.125446
     58 H26         3.9650    1.9730   -1.3600 h1        1 MOL      0.073836
     59 H27         4.1280    1.9150   -3.0470 h1        1 MOL      0.073836
     60 N6          5.6000    3.9530   -1.7030 n         1 MOL     -0.489638
     61 C19         4.2890    4.6450   -1.8560 c3        1 MOL      0.352577
     62 C20         3.9830    5.3870   -0.5130 c         1 MOL      0.478207
     63 O10         4.9560    5.5790    0.2650 o         1 MOL     -0.552337
     64 C21         4.3160    5.5770   -3.1270 c3        1 MOL     -0.442983
     65 C22         4.6430    4.8780   -4.4120 c         1 MOL      0.742488
     66 N7          5.7530    5.2230   -5.0510 n         1 MOL     -0.788276
     67 O11         3.8690    4.0900   -4.9140 o         1 MOL     -0.563157
     68 H28         6.4200    4.5340   -1.6000 hn        1 MOL      0.309784
     69 H29         3.4440    3.9730   -2.0150 h1        1 MOL      0.010086
     70 H30         4.8850    6.4830   -2.9410 hc        1 MOL      0.090837
     71 H31         3.3080    5.9580   -3.2650 hc        1 MOL      0.090837
     72 H32         6.3740    5.8890   -4.6070 hn        1 MOL      0.369567
     73 H33         5.8890    4.8630   -5.9810 hn        1 MOL      0.369567
     74 N8          2.7330    5.6200   -0.1080 n         1 MOL     -0.470475
     75 C23         1.5650    5.1390   -0.8130 c3        1 MOL     -0.070035
     76 C24         0.3260    5.6920   -0.2180 c         1 MOL      0.709003
     77 O12         0.3400    6.6280    0.6060 o         1 MOL     -0.564276
     78 H34         2.5470    6.1220    0.7420 hn        1 MOL      0.335010
     79 H35         1.5420    4.0470   -0.7390 h1        1 MOL      0.074055
     80 H36         1.4250    5.2950   -1.8840 h1        1 MOL      0.074055
     81 N9         -0.7570    5.0060   -0.5800 n         1 MOL     -0.743258
     82 C25        -2.1340    5.3500   -0.0680 c3        1 MOL      0.443787
     83 C26        -2.8550    4.0450    0.2250 c         1 MOL      0.440132
     84 O13        -2.4830    2.9770   -0.3470 o         1 MOL     -0.549883
     85 C27        -2.8140    6.1570   -1.1730 c3        1 MOL     -0.218020
     86 C28        -4.0910    6.8040   -0.6990 ca        1 MOL     -0.000231
     87 C29        -5.3260    6.2720   -1.1060 ca        1 MOL     -0.054163
     88 C30        -4.0710    7.8560    0.1600 ca        1 MOL     -0.054163
     89 C31        -6.5320    6.9440   -0.7030 ca        1 MOL     -0.383050
     90 C32        -5.2410    8.5080    0.6170 ca        1 MOL     -0.383050
     91 C33        -6.4640    8.0490    0.1080 ca        1 MOL      0.461892
     92 O14        -7.6070    8.6360    0.5260 oh        1 MOL     -0.523037
     93 H37        -0.6990    4.2420   -1.2440 hn        1 MOL      0.351999
     94 H38        -2.1180    5.9580    0.8420 h1        1 MOL     -0.025956
     95 H39        -2.9480    5.4450   -1.9840 hc        1 MOL      0.079429
     96 H40        -2.0460    6.8880   -1.4160 hc        1 MOL      0.079429
     97 H41        -5.3890    5.3100   -1.5910 ha        1 MOL      0.115929
     98 H42        -3.1300    8.2810    0.4720 ha        1 MOL      0.115929
     99 H43        -7.4650    6.5020   -1.0230 ha        1 MOL      0.176524
    100 H44        -5.2360    9.3630    1.2690 ha        1 MOL      0.176524
    101 H45        -7.4670    9.4550    1.0130 ho        1 MOL      0.373663
    102 N10        -4.0200    4.0890    0.8820 n         1 MOL     -0.385112
    103 C34        -4.7400    2.8810    1.3850 c3        1 MOL     -0.106293
    104 C35        -5.5240    2.3600    0.2250 c         1 MOL      0.676247
    105 O15        -6.2850    3.0950   -0.4390 o         1 MOL     -0.526602
    106 C36        -5.6370    3.1490    2.5960 c3        1 MOL      0.044663
    107 C37        -4.9540    2.8940    3.9420 c3        1 MOL      0.021542
    108 C38        -6.2640    4.5650    2.6250 c3        1 MOL     -0.081412
    109 C39        -5.9890    2.7640    5.0490 c3        1 MOL     -0.220028
    110 H46        -4.4180    4.9730    1.1770 hn        1 MOL      0.218647
    111 H47        -3.9460    2.2100    1.7150 h1        1 MOL      0.118145
    112 H48        -6.4500    2.4240    2.5650 hc        1 MOL      0.020780
    113 H49        -4.3110    3.7320    4.2250 hc        1 MOL      0.017756
    114 H50        -4.3080    2.0230    3.8590 hc        1 MOL      0.017756
    115 H51        -6.7070    4.7640    1.6480 hc        1 MOL      0.036775
    116 H52        -6.9690    4.8360    3.4230 hc        1 MOL      0.036775
    117 H53        -5.5000    5.3500    2.7160 hc        1 MOL      0.036775
    118 H54        -5.5740    2.4980    6.0220 hc        1 MOL      0.060102
    119 H55        -6.4990    3.7000    5.2760 hc        1 MOL      0.060102
    120 H56        -6.7180    1.9610    4.8720 hc        1 MOL      0.060102
    121 N11        -5.4630    1.0950   -0.0570 n         1 MOL     -0.476786
    122 C40        -6.1590    0.3440   -1.0560 c3        1 MOL      0.019304
    123 C41        -5.5180   -0.9830   -1.4390 c         1 MOL      0.717152
    124 O16        -4.7300   -1.5240   -0.7110 o         1 MOL     -0.503936
    125 C42        -7.5870    0.2360   -0.5470 c3        1 MOL      0.185384
    126 O17        -7.6710   -0.5640    0.6620 oh        1 MOL     -0.605597
    127 H57        -4.8620    0.5370    0.5280 hn        1 MOL      0.256065
    128 H58        -6.3210    1.0120   -1.9000 h1        1 MOL      0.048913
    129 H59        -8.1390   -0.2950   -1.3200 h1        1 MOL      0.010665
    130 H60        -8.1550    1.1590   -0.4820 h1        1 MOL      0.010665
    131 H61        -8.5210   -0.4230    1.0750 ho        1 MOL      0.402915
    132 N12        -5.9840   -1.5490   -2.5880 n         1 MOL     -0.692698
    133 C43        -5.4220   -2.7330   -3.2200 c3        1 MOL      0.280071
    134 C44        -5.3530   -3.9530   -2.2970 c         1 MOL      0.233824
    135 O18        -4.2980   -4.6350   -2.2290 o         1 MOL     -0.425363
    136 C45        -4.0860   -2.3820   -3.8960 c3        1 MOL     -0.333812
    137 H62        -6.6160   -0.9970   -3.1620 hn        1 MOL      0.337940
    138 H63        -5.9960   -2.9860   -4.1180 h1        1 MOL      0.078554
    139 H64        -3.2810   -2.3590   -3.1610 hc        1 MOL      0.100590
    140 H65        -3.8410   -2.9470   -4.7860 hc        1 MOL      0.100590
    141 H66        -4.2990   -1.3540   -4.2150 hc        1 MOL      0.100590
    142 N13        -6.3820   -4.3080   -1.5280 n         1 MOL     -0.339814
    143 C46        -6.6090   -5.4780   -0.6590 c3        1 MOL      0.340821
    144 C47        -5.3420   -5.8380    0.2000 c         1 MOL      0.411112
    145 O19        -4.9220   -6.9680    0.1720 o         1 MOL     -0.462866
    146 C48        -7.2050   -6.5770   -1.4820 c3        1 MOL     -0.509553
    147 H67        -7.1890   -3.7190   -1.7070 hn        1 MOL      0.242573
    148 H68        -7.2820   -5.0240    0.0690 h1        1 MOL     -0.008928
    149 H69        -8.1910   -6.1990   -1.7520 hc        1 MOL      0.145330
    150 H70        -6.5680   -6.7130   -2.3620 hc        1 MOL      0.145330
    151 H71        -7.2320   -7.5470   -0.9910 hc        1 MOL      0.145330
    152 N14        -4.6410   -4.8920    0.8570 n         1 MOL     -0.554812
    153 C49        -3.4180   -5.1040    1.6810 c3        1 MOL      0.118071
    154 C50        -3.6300   -5.5010    3.2120 c         1 MOL      0.461423
    155 O20        -2.7970   -6.2700    3.6730 o         1 MOL     -0.516892
    156 C51        -2.4660   -3.9130    1.6070 c3        1 MOL      0.271335
    157 C52        -0.9770   -4.0470    2.0760 c3        1 MOL     -0.259622
    158 C53        -0.1720   -4.8270    1.0130 c         1 MOL      0.849696
    159 O21         0.8190   -4.3110    0.4840 o         1 MOL     -0.777583
    160 O22        -0.4040   -5.9930    0.6760 o         1 MOL     -0.777583
    161 H72        -4.9120   -3.9360    0.6750 hn        1 MOL      0.272938
    162 H73        -2.8870   -5.9450    1.2530 h1        1 MOL      0.136112
    163 H74        -2.8710   -3.1380    2.2590 hc        1 MOL     -0.080327
    164 H75        -2.5520   -3.5940    0.5640 hc        1 MOL     -0.080327
    165 H76        -0.9750   -4.5740    3.0310 hc        1 MOL      0.039502
    166 H77        -0.4800   -3.0950    2.2750 hc        1 MOL      0.039502
    167 N15        -4.6090   -5.0030    3.9170 n         1 MOL     -0.285857
    168 C54        -5.0120   -5.5260    5.2290 c3        1 MOL     -0.189753
    169 H78        -5.7300   -6.3340    5.0910 h1        1 MOL      0.100255
    170 H79        -4.1360   -5.9050    5.7550 h1        1 MOL      0.100255
    171 H80        -5.4710   -4.7290    5.8140 h1        1 MOL      0.100255
    172 H81        -5.1260   -4.2120    3.5800 hn        1 MOL      0.234428
    173 Ca1         0.9330   -4.2510   -2.1220 Ca        1 MOL      1.828708
    174 O23         1.1900   -6.8810   -1.4280 oh        1 MOL     -0.900293
    175 H82         1.7580   -7.6500   -1.4430 ho        1 MOL      0.436578
    176 H83         0.7110   -6.9490   -0.5990 ho        1 MOL      0.436578
    177 O24         1.7390   -5.3610   -4.4810 oh        1 MOL     -0.900293
    178 O25        -0.6000   -2.0080   -1.6200 oh        1 MOL     -0.900293
    179 H84         2.5490   -5.8260   -4.6960 ho        1 MOL      0.436578
    180 H85        -0.8570   -1.5240   -2.4010 ho        1 MOL      0.436578
    181 H86         1.3070   -5.2180   -5.3190 ho        1 MOL      0.436578
    182 H87        -1.0360   -1.5560   -0.9000 ho        1 MOL      0.436578
    183 O26         0.2430   -2.8080   -4.2030 oh        1 MOL     -0.900293
    184 H88        -0.3090   -3.2500   -4.8550 ho        1 MOL      0.436578
    185 H89         0.4230   -1.9480   -4.5880 ho        1 MOL      0.436578
    186 O27         2.5410   -2.4750   -0.1170 oh        1 MOL     -0.900293
    187 H90         2.1820   -3.1390    0.4780 ho        1 MOL      0.436578
    188 H91         2.1110   -1.6690    0.1400 ho        1 MOL      0.436578
    189 O28        -1.5790   -5.0820   -2.0540 oh        1 MOL     -0.900293
    190 H92        -1.8130   -5.9170   -1.6450 ho        1 MOL      0.436578
    191 H93        -2.4070   -4.7370   -2.3930 ho        1 MOL      0.436578
@<TRIPOS>BOND
     1    1    2 1   
     2    1    4 1   
     3    1    5 1   
     4    1    6 1   
     5    2    3 2   
     6    2    7 1   
     7    7    8 1   
     8    7   15 1   
     9    8    9 1   
    10    8   11 1   
    11    8   16 1   
    12    9   10 2   
    13    9   19 1   
    14   11   12 1   
    15   11   17 1   
    16   11   18 1   
    17   12   13 1   
    18   12   14 1   
    19   19   20 1   
    20   19   28 1   
    21   20   21 1   
    22   20   23 1   
    23   20   29 1   
    24   21   22 2   
    25   21   41 1   
    26   23   24 1   
    27   23   30 1   
    28   23   31 1   
    29   24   25 1   
    30   24   32 1   
    31   24   33 1   
    32   25   26 1   
    33   25   34 1   
    34   25   35 1   
    35   26   27 1   
    36   26   36 1   
    37   26   37 1   
    38   27   38 1   
    39   27   39 1   
    40   27   40 1   
    41   41   42 1   
    42   41   49 1   
    43   42   43 1   
    44   42   45 1   
    45   42   50 1   
    46   43   44 2   
    47   43   53 1   
    48   45   46 1   
    49   45   51 1   
    50   45   52 1   
    51   46   47 1   
    52   46   48 1   
    53   53   54 1   
    54   53   57 1   
    55   54   55 1   
    56   54   58 1   
    57   54   59 1   
    58   55   56 2   
    59   55   60 1   
    60   60   61 1   
    61   60   68 1   
    62   61   62 1   
    63   61   64 1   
    64   61   69 1   
    65   62   63 2   
    66   62   74 1   
    67   64   65 1   
    68   64   70 1   
    69   64   71 1   
    70   65   66 1   
    71   65   67 2   
    72   66   72 1   
    73   66   73 1   
    74   74   75 1   
    75   74   78 1   
    76   75   76 1   
    77   75   79 1   
    78   75   80 1   
    79   76   77 2   
    80   76   81 1   
    81   81   82 1   
    82   81   93 1   
    83   82   83 1   
    84   82   85 1   
    85   82   94 1   
    86   83   84 2   
    87   83  102 1   
    88   85   86 1   
    89   85   95 1   
    90   85   96 1   
    91   86   87 ar  
    92   86   88 ar  
    93   87   89 ar  
    94   87   97 1   
    95   88   90 ar  
    96   88   98 1   
    97   89   91 ar  
    98   89   99 1   
    99   90   91 ar  
   100   90  100 1   
   101   91   92 1   
   102   92  101 1   
   103  102  103 1   
   104  102  110 1   
   105  103  104 1   
   106  103  106 1   
   107  103  111 1   
   108  104  105 2   
   109  104  121 1   
   110  106  107 1   
   111  106  108 1   
   112  106  112 1   
   113  107  109 1   
   114  107  113 1   
   115  107  114 1   
   116  108  115 1   
   117  108  116 1   
   118  108  117 1   
   119  109  118 1   
   120  109  119 1   
   121  109  120 1   
   122  121  122 1   
   123  121  127 1   
   124  122  123 1   
   125  122  125 1   
   126  122  128 1   
   127  123  124 2   
   128  123  132 1   
   129  125  126 1   
   130  125  129 1   
   131  125  130 1   
   132  126  131 1   
   133  132  133 1   
   134  132  137 1   
   135  133  134 1   
   136  133  136 1   
   137  133  138 1   
   138  134  135 2   
   139  134  142 1   
   140  136  139 1   
   141  136  140 1   
   142  136  141 1   
   143  142  143 1   
   144  142  147 1   
   145  143  144 1   
   146  143  146 1   
   147  143  148 1   
   148  144  145 2   
   149  144  152 1   
   150  146  149 1   
   151  146  150 1   
   152  146  151 1   
   153  152  153 1   
   154  152  161 1   
   155  153  154 1   
   156  153  156 1   
   157  153  162 1   
   158  154  155 2   
   159  154  167 1   
   160  156  157 1   
   161  156  163 1   
   162  156  164 1   
   163  157  158 1   
   164  157  165 1   
   165  157  166 1   
   166  158  159 1   
   167  158  160 1   
   168  167  168 1   
   169  167  172 1   
   170  168  169 1   
   171  168  170 1   
   172  168  171 1   
   173  174  175 1   
   174  174  176 1   
   175  177  179 1   
   176  177  181 1   
   177  178  180 1   
   178  178  182 1   
   179  183  184 1   
   180  183  185 1   
   181  186  187 1   
   182  186  188 1   
   183  189  190 1   
   184  189  191 1   
@<TRIPOS>SUBSTRUCTURE
     1 MOL         1 TEMP              0 ****  ****    0 ROOT
