@<TRIPOS>MOLECULE
MOL
  181   177     1     0     0
SMALL
resp


@<TRIPOS>ATOM
      1 C1          2.3610   -3.2050    4.2230 c3        1 MOL     -0.360492
      2 C2          3.4470   -2.2280    3.6830 c         1 MOL      0.678428
      3 O1          3.2120   -1.3450    2.8500 o         1 MOL     -0.581692
      4 H1          1.8350   -2.7390    5.0570 hc        1 MOL      0.096398
      5 H2          1.6500   -3.4330    3.4280 hc        1 MOL      0.096398
      6 H3          2.8360   -4.1250    4.5620 hc        1 MOL      0.096398
      7 N1          4.6740   -2.4520    4.0300 n         1 MOL     -0.482472
      8 C3          5.8600   -1.7340    3.6220 c3        1 MOL      0.190550
      9 C4          6.2800   -2.0950    2.1580 c         1 MOL      0.504742
     10 O2          6.0530   -3.2230    1.6630 o         1 MOL     -0.530840
     11 C5          6.8850   -2.1600    4.7010 c3        1 MOL     -0.118186
     12 C6          8.1560   -1.3460    4.6280 c         1 MOL      0.714674
     13 O3          8.2860   -0.3610    3.8590 o         1 MOL     -0.728470
     14 O4          9.0890   -1.8520    5.2030 o         1 MOL     -0.728470
     15 H4          4.7770   -3.2420    4.6460 hn        1 MOL      0.242367
     16 H5          5.7450   -0.6570    3.7300 h1        1 MOL      0.011548
     17 H6          7.0530   -3.2180    4.5380 hc        1 MOL      0.005226
     18 H7          6.5480   -1.9720    5.7220 hc        1 MOL      0.005226
     19 N2          6.8560   -1.1130    1.4620 n         1 MOL     -0.622424
     20 C7          7.2230   -1.2330    0.0270 c3        1 MOL      0.694007
     21 C8          6.1090   -0.6320   -0.8440 c         1 MOL      0.335624
     22 O5          5.2870    0.1530   -0.4040 o         1 MOL     -0.530871
     23 C9          8.5710   -0.5210   -0.2800 c3        1 MOL     -0.262928
     24 H8          7.1370   -0.3040    1.9910 hn        1 MOL      0.291970
     25 H9          7.3860   -2.2730   -0.2410 h1        1 MOL     -0.046662
     26 H10         9.3350   -1.1180    0.2190 hc        1 MOL      0.048484
     27 H11         8.8110   -0.7480   -1.3150 hc        1 MOL      0.048484
     28 H12         8.6370    0.5550   -0.0850 hc        1 MOL      0.048484
     29 N3          6.0080   -0.9600   -2.1360 n         1 MOL     -0.676603
     30 C10         4.7790   -0.6860   -3.0260 c3        1 MOL      0.125643
     31 C11         4.9760    0.6780   -3.7100 c         1 MOL      0.664437
     32 O6          4.9000    0.7100   -4.9230 o         1 MOL     -0.544164
     33 C12         4.6460   -1.8790   -3.9560 c3        1 MOL     -0.304654
     34 C13         4.5730   -3.2260   -3.2200 c         1 MOL      0.755985
     35 O7          5.3590   -4.1110   -3.5690 o         1 MOL     -0.692956
     36 O8          3.6440   -3.4540   -2.3990 o         1 MOL     -0.692956
     37 H13         6.6920   -1.6200   -2.4850 hn        1 MOL      0.361835
     38 H14         3.8580   -0.5560   -2.4680 h1        1 MOL     -0.013306
     39 H15         5.3820   -1.8760   -4.7630 hc        1 MOL      0.054788
     40 H16         3.6720   -1.7420   -4.4160 hc        1 MOL      0.054788
     41 N4          5.2450    1.7410   -2.9580 n         1 MOL     -0.299626
     42 C14         5.5710    3.0550   -3.4300 c3        1 MOL     -0.319810
     43 C15         4.4260    3.8970   -3.9690 c         1 MOL      0.607930
     44 O9          4.5930    4.8200   -4.7890 o         1 MOL     -0.577459
     45 H17         5.1440    1.5110   -1.9760 hn        1 MOL      0.320191
     46 H18         6.2440    2.9900   -4.2770 h1        1 MOL      0.123696
     47 H19         6.0740    3.5520   -2.6020 h1        1 MOL      0.123696
     48 N5          3.3400    3.5240   -3.3860 n         1 MOL     -0.310016
     49 C16         2.0360    4.1250   -3.5970 c3        1 MOL      0.205826
     50 C17         1.7090    4.9020   -2.2350 c         1 MOL      0.432084
     51 O10         1.9370    4.4330   -1.1220 o         1 MOL     -0.452801
     52 C18         0.8930    3.0810   -3.9080 c3        1 MOL     -0.309701
     53 C19         1.2120    2.2120   -5.1490 c         1 MOL      0.585626
     54 N6          1.4740    0.9200   -4.8930 n         1 MOL     -0.769715
     55 O11         1.4070    2.5930   -6.3020 o         1 MOL     -0.529852
     56 H20         3.5170    2.7240   -2.7910 hn        1 MOL      0.185000
     57 H21         2.0950    4.8670   -4.3810 h1        1 MOL      0.005241
     58 H22        -0.0500    3.6200   -3.9960 hc        1 MOL      0.111001
     59 H23         0.9250    2.4000   -3.0560 hc        1 MOL      0.111001
     60 H24         1.3750    0.6420   -3.9290 hn        1 MOL      0.378010
     61 H25         1.7660    0.3180   -5.6390 hn        1 MOL      0.378010
     62 N7          1.0460    6.0840   -2.3970 n         1 MOL     -0.473184
     63 C20         0.6420    6.9390   -1.2590 c3        1 MOL     -0.155153
     64 C21        -0.6230    6.4410   -0.5690 c         1 MOL      0.675461
     65 O12        -1.3800    5.6510   -1.0840 o         1 MOL     -0.511967
     66 H26         0.8230    6.4810   -3.2960 hn        1 MOL      0.328256
     67 H27         0.4930    7.9430   -1.6470 h1        1 MOL      0.102965
     68 H28         1.4270    6.9410   -0.4990 h1        1 MOL      0.102965
     69 N8         -0.8260    6.9450    0.6660 n         1 MOL     -0.500009
     70 C22        -1.9800    6.7460    1.6230 c3        1 MOL     -0.245948
     71 C23        -2.0030    5.4760    2.4380 c         1 MOL      0.561664
     72 O13        -3.0250    5.1030    3.0300 o         1 MOL     -0.592269
     73 C24        -1.9490    7.9470    2.6380 c3        1 MOL      0.414385
     74 C25        -0.7740    7.8990    3.7020 c3        1 MOL     -0.241339
     75 O14        -1.8870    9.1950    1.9380 oh        1 MOL     -0.616423
     76 H29        -0.1020    7.5730    0.9790 hn        1 MOL      0.229730
     77 H30        -2.8670    6.6830    0.9910 h1        1 MOL      0.174293
     78 H31        -2.8570    7.9790    3.2500 h1        1 MOL      0.035613
     79 H32        -0.9680    9.3240    1.7120 ho        1 MOL      0.371897
     80 H33        -0.3510    8.8770    3.9510 hc        1 MOL      0.061709
     81 H34        -1.1230    7.5260    4.6600 hc        1 MOL      0.061709
     82 H35        -0.0210    7.1610    3.4160 hc        1 MOL      0.061709
     83 N9         -0.9800    4.6450    2.4020 n         1 MOL     -0.225497
     84 C26        -1.0020    3.2910    2.9830 c3        1 MOL     -0.236586
     85 C27        -0.7960    2.2090    1.9420 c         1 MOL      0.762441
     86 O15         0.1300    2.3370    1.1790 o         1 MOL     -0.523533
     87 C28        -0.0110    3.2040    4.1430 c3        1 MOL      0.064849
     88 C29        -0.1820    4.2680    5.2670 c3        1 MOL      0.108928
     89 C30        -0.0320    1.7140    4.6630 c3        1 MOL     -0.045943
     90 C31        -1.5670    4.3440    5.9380 c3        1 MOL     -0.197290
     91 H36        -0.2900    4.7980    1.6760 hn        1 MOL      0.228198
     92 H37        -2.0050    3.0600    3.3380 h1        1 MOL      0.121817
     93 H38         0.9800    3.3610    3.7310 hc        1 MOL      0.021594
     94 H39         0.1160    5.2400    4.8850 hc        1 MOL     -0.023148
     95 H40         0.6030    4.0730    5.9880 hc        1 MOL     -0.023148
     96 H41        -1.0440    1.4060    4.9300 hc        1 MOL      0.006348
     97 H42         0.3420    1.0460    3.8910 hc        1 MOL      0.006348
     98 H43         0.6020    1.7400    5.5590 hc        1 MOL      0.006348
     99 H44        -2.2360    4.9690    5.3460 hc        1 MOL      0.043891
    100 H45        -1.9200    3.3820    6.3040 hc        1 MOL      0.043891
    101 H46        -1.4500    4.8660    6.8940 hc        1 MOL      0.043891
    102 N10        -1.7660    1.3410    1.7190 n         1 MOL     -0.711985
    103 C32        -1.6620    0.2020    0.7540 c3        1 MOL      0.292935
    104 C33        -2.9910   -0.2440    0.0480 c         1 MOL      0.580309
    105 O16        -3.0630   -1.3660   -0.5360 o         1 MOL     -0.505355
    106 C34        -0.8630   -0.8570    1.5250 c3        1 MOL     -0.209555
    107 C35        -0.3610   -1.8690    0.5640 c         1 MOL      0.631740
    108 O17        -0.0890   -1.5360   -0.5830 o         1 MOL     -0.725304
    109 O18         0.0090   -2.9750    1.0160 o         1 MOL     -0.725304
    110 H47        -2.5380    1.3710    2.3730 hn        1 MOL      0.304928
    111 H48        -1.0730    0.5700   -0.0890 h1        1 MOL      0.041452
    112 H49        -1.4450   -1.4720    2.2080 hc        1 MOL      0.079414
    113 H50         0.0240   -0.4940    2.0300 hc        1 MOL      0.079414
    114 N11        -4.0170    0.6600    0.0720 n         1 MOL     -0.644062
    115 C36        -5.2880    0.2950   -0.5830 c3        1 MOL      0.266268
    116 C37        -5.9060   -0.9600   -0.0560 c         1 MOL      0.216426
    117 O19        -6.0040   -1.1410    1.1350 o         1 MOL     -0.414855
    118 C38        -6.2630    1.4970   -0.5440 c3        1 MOL     -0.115272
    119 C39        -7.5540    1.3040   -1.2970 ca        1 MOL      0.055629
    120 C40        -7.7790    1.8050   -2.6360 ca        1 MOL     -0.153892
    121 C41        -8.4850    0.5110   -0.6200 ca        1 MOL     -0.153892
    122 C42        -9.0160    1.5040   -3.2510 ca        1 MOL     -0.112594
    123 C43        -9.7580    0.3510   -1.1830 ca        1 MOL     -0.112594
    124 C44       -10.0050    0.7670   -2.4990 ca        1 MOL     -0.139047
    125 H51        -3.8670    1.6170    0.3390 hn        1 MOL      0.340087
    126 H52        -5.0010    0.1820   -1.6310 h1        1 MOL      0.046905
    127 H53        -5.7460    2.4010   -0.8460 hc        1 MOL      0.063311
    128 H54        -6.5490    1.6830    0.4830 hc        1 MOL      0.063311
    129 H55        -7.0150    2.3750   -3.1530 ha        1 MOL      0.134522
    130 H56        -8.3840    0.2690    0.4330 ha        1 MOL      0.134522
    131 H57        -9.2680    1.7800   -4.2610 ha        1 MOL      0.116517
    132 H58       -10.4590   -0.2640   -0.6430 ha        1 MOL      0.116517
    133 H59       -10.9930    0.5890   -2.9030 ha        1 MOL      0.108032
    134 N12        -6.3800   -1.8330   -0.9600 n         1 MOL     -0.131930
    135 C45        -7.0640   -3.0090   -0.5050 c3        1 MOL      0.029804
    136 C46        -6.4220   -4.0560    0.4520 c         1 MOL      0.241088
    137 O20        -7.1080   -4.7480    1.1980 o         1 MOL     -0.503062
    138 C47        -7.5790   -3.7660   -1.7330 c3        1 MOL      0.032408
    139 C48        -7.6930   -2.5920   -2.6780 c3        1 MOL      0.119933
    140 C49        -6.4940   -1.7430   -2.4190 c3        1 MOL     -0.160023
    141 H60        -7.9100   -2.5260   -0.0210 h1        1 MOL      0.075944
    142 H61        -6.8450   -4.4830   -2.1060 hc        1 MOL      0.002923
    143 H62        -8.5650   -4.2050   -1.5610 hc        1 MOL      0.002923
    144 H63        -7.7260   -2.9090   -3.7160 hc        1 MOL     -0.009049
    145 H64        -8.6730   -2.1240   -2.6070 hc        1 MOL     -0.009049
    146 H65        -5.6410   -2.0860   -3.0080 h1        1 MOL      0.068579
    147 H66        -6.6590   -0.6970   -2.6800 h1        1 MOL      0.068579
    148 N13        -5.1000   -4.1330    0.3940 n         1 MOL     -0.018915
    149 C50        -4.3010   -4.9360    1.3290 c3        1 MOL     -0.317861
    150 C51        -4.3400   -4.4560    2.7800 c         1 MOL      0.525718
    151 O21        -3.9470   -5.2620    3.6100 o         1 MOL     -0.546147
    152 C52        -2.8390   -4.8790    0.7740 c3        1 MOL      0.078999
    153 C53        -2.5070   -5.7760   -0.4560 c3        1 MOL     -0.140164
    154 C54        -1.0490   -5.3820   -0.8790 c         1 MOL      0.689598
    155 O22         0.0140   -5.8330   -0.3300 o         1 MOL     -0.723742
    156 O23        -0.8130   -4.7560   -1.9950 o         1 MOL     -0.723742
    157 H67        -4.6960   -3.7110   -0.4240 hn        1 MOL      0.241352
    158 H68        -4.7880   -5.9090    1.2300 h1        1 MOL      0.143669
    159 H69        -2.1470   -5.1850    1.5570 hc        1 MOL      0.059626
    160 H70        -2.5980   -3.8540    0.5090 hc        1 MOL      0.059626
    161 H71        -3.1640   -5.5180   -1.2870 hc        1 MOL      0.003719
    162 H72        -2.4660   -6.8480   -0.2900 hc        1 MOL      0.003719
    163 N14        -4.8120   -3.2320    2.9880 n         1 MOL     -0.173464
    164 C55        -4.7170   -2.4890    4.2750 c3        1 MOL     -0.221606
    165 H73        -4.7950   -3.1910    5.1060 h1        1 MOL      0.093098
    166 H74        -3.7590   -1.9710    4.3260 h1        1 MOL      0.093098
    167 H75        -5.5270   -1.7630    4.3370 h1        1 MOL      0.093098
    168 H76        -5.0860   -2.7400    2.1500 hn        1 MOL      0.159741
    169 Ca1         1.4520   -3.6170   -1.0390 Ca        1 MOL      1.731008
    170 O24         3.4110   -1.8050    0.0680 oh        1 MOL     -0.793873
    171 H77         3.3060   -1.6880    1.0130 ho        1 MOL      0.381417
    172 H78         4.1070   -1.1930   -0.1790 ho        1 MOL      0.381417
    173 O25         1.6760   -5.6900   -2.8290 oh        1 MOL     -0.793873
    174 H79         0.7360   -5.8420   -2.7390 ho        1 MOL      0.381417
    175 H80         1.8110   -5.5670   -3.7730 ho        1 MOL      0.381417
    176 O26         2.9760   -5.0460    0.6850 oh        1 MOL     -0.793873
    177 H81         3.0110   -5.5430    1.5020 ho        1 MOL      0.381417
    178 H82         3.8530   -5.1570    0.3060 ho        1 MOL      0.381417
    179 O27         0.9240   -2.6870   -3.5500 oh        1 MOL     -0.793873
    180 H83         1.5660   -2.9480   -4.2030 ho        1 MOL      0.381417
    181 H84         0.2500   -2.2160   -4.0400 ho        1 MOL      0.381417
@<TRIPOS>BOND
     1    1    2 1   
     2    1    4 1   
     3    1    5 1   
     4    1    6 1   
     5    2    3 2   
     6    2    7 1   
     7    7    8 1   
     8    7   15 1   
     9    8    9 1   
    10    8   11 1   
    11    8   16 1   
    12    9   10 2   
    13    9   19 1   
    14   11   12 1   
    15   11   17 1   
    16   11   18 1   
    17   12   13 1   
    18   12   14 1   
    19   19   20 1   
    20   19   24 1   
    21   20   21 1   
    22   20   23 1   
    23   20   25 1   
    24   21   22 2   
    25   21   29 1   
    26   23   26 1   
    27   23   27 1   
    28   23   28 1   
    29   29   30 1   
    30   29   37 1   
    31   30   31 1   
    32   30   33 1   
    33   30   38 1   
    34   31   32 2   
    35   31   41 1   
    36   33   34 1   
    37   33   39 1   
    38   33   40 1   
    39   34   35 1   
    40   34   36 1   
    41   41   42 1   
    42   41   45 1   
    43   42   43 1   
    44   42   46 1   
    45   42   47 1   
    46   43   44 2   
    47   43   48 1   
    48   48   49 1   
    49   48   56 1   
    50   49   50 1   
    51   49   52 1   
    52   49   57 1   
    53   50   51 2   
    54   50   62 1   
    55   52   53 1   
    56   52   58 1   
    57   52   59 1   
    58   53   54 1   
    59   53   55 2   
    60   54   60 1   
    61   54   61 1   
    62   62   63 1   
    63   62   66 1   
    64   63   64 1   
    65   63   67 1   
    66   63   68 1   
    67   64   65 2   
    68   64   69 1   
    69   69   70 1   
    70   69   76 1   
    71   70   71 1   
    72   70   73 1   
    73   70   77 1   
    74   71   72 2   
    75   71   83 1   
    76   73   74 1   
    77   73   75 1   
    78   73   78 1   
    79   74   80 1   
    80   74   81 1   
    81   74   82 1   
    82   75   79 1   
    83   83   84 1   
    84   83   91 1   
    85   84   85 1   
    86   84   87 1   
    87   84   92 1   
    88   85   86 2   
    89   85  102 1   
    90   87   88 1   
    91   87   89 1   
    92   87   93 1   
    93   88   90 1   
    94   88   94 1   
    95   88   95 1   
    96   89   96 1   
    97   89   97 1   
    98   89   98 1   
    99   90   99 1   
   100   90  100 1   
   101   90  101 1   
   102  102  103 1   
   103  102  110 1   
   104  103  104 1   
   105  103  106 1   
   106  103  111 1   
   107  104  105 2   
   108  104  114 1   
   109  106  107 1   
   110  106  112 1   
   111  106  113 1   
   112  107  108 1   
   113  107  109 1   
   114  114  115 1   
   115  114  125 1   
   116  115  116 1   
   117  115  118 1   
   118  115  126 1   
   119  116  117 2   
   120  116  134 1   
   121  118  119 1   
   122  118  127 1   
   123  118  128 1   
   124  119  120 ar  
   125  119  121 ar  
   126  120  122 ar  
   127  120  129 1   
   128  121  123 ar  
   129  121  130 1   
   130  122  124 ar  
   131  122  131 1   
   132  123  124 ar  
   133  123  132 1   
   134  124  133 1   
   135  134  135 1   
   136  134  140 1   
   137  135  136 1   
   138  135  138 1   
   139  135  141 1   
   140  136  137 2   
   141  136  148 1   
   142  138  139 1   
   143  138  142 1   
   144  138  143 1   
   145  139  140 1   
   146  139  144 1   
   147  139  145 1   
   148  140  146 1   
   149  140  147 1   
   150  148  149 1   
   151  148  157 1   
   152  149  150 1   
   153  149  152 1   
   154  149  158 1   
   155  150  151 2   
   156  150  163 1   
   157  152  153 1   
   158  152  159 1   
   159  152  160 1   
   160  153  154 1   
   161  153  161 1   
   162  153  162 1   
   163  154  155 1   
   164  154  156 1   
   165  163  164 1   
   166  163  168 1   
   167  164  165 1   
   168  164  166 1   
   169  164  167 1   
   170  170  171 1   
   171  170  172 1   
   172  173  174 1   
   173  173  175 1   
   174  176  177 1   
   175  176  178 1   
   176  179  180 1   
   177  179  181 1   
@<TRIPOS>SUBSTRUCTURE
     1 MOL         1 TEMP              0 ****  ****    0 ROOT
