@<TRIPOS>MOLECULE
MOL
  182   178     1     0     0
SMALL
resp


@<TRIPOS>ATOM
      1 C1          2.5670   -5.2450    5.7970 c3        1 MOL     -0.404113
      2 C2          2.3000   -4.8170    4.4080 c         1 MOL      0.755152
      3 O1          1.5790   -5.4490    3.6390 o         1 MOL     -0.613934
      4 H1          3.3860   -5.9650    5.8030 hc        1 MOL      0.108388
      5 H2          2.8410   -4.3790    6.3990 hc        1 MOL      0.108388
      6 H3          1.6730   -5.7090    6.2130 hc        1 MOL      0.108388
      7 N1          2.9060   -3.6820    4.0390 n         1 MOL     -0.574247
      8 C3          2.9510   -3.1160    2.6350 c3        1 MOL     -0.196011
      9 C4          3.5360   -3.9970    1.5580 c         1 MOL      0.586889
     10 O2          4.7230   -4.3640    1.6700 o         1 MOL     -0.504444
     11 C5          3.6790   -1.7700    2.7160 c3        1 MOL      0.142119
     12 C6          3.5890   -0.9550    1.3940 c         1 MOL      0.143594
     13 O3          3.6820    0.2810    1.5500 o         1 MOL     -0.578050
     14 O4          3.4120   -1.4330    0.2650 o         1 MOL     -0.578050
     15 H4          3.4590   -3.1780    4.7180 hn        1 MOL      0.319341
     16 H5          1.9490   -2.8560    2.3110 h1        1 MOL      0.209625
     17 H6          4.7180   -1.9100    3.0220 hc        1 MOL      0.040419
     18 H7          3.2750   -1.1590    3.5150 hc        1 MOL      0.040419
     19 N2          2.7600   -4.3140    0.4950 n         1 MOL     -0.269074
     20 C7          3.2110   -5.1760   -0.6090 c3        1 MOL      0.006009
     21 C8          4.5520   -4.7900   -1.2460 c         1 MOL      0.500416
     22 O5          5.3100   -5.6840   -1.5580 o         1 MOL     -0.535022
     23 C9          2.1080   -5.2450   -1.7660 c3        1 MOL      0.072237
     24 C10         1.9380   -6.6260   -2.4390 c3        1 MOL     -0.098965
     25 C11         1.1150   -7.6590   -1.6360 c3        1 MOL     -0.038964
     26 C12        -0.3520   -7.3430   -1.5130 c3        1 MOL      0.198964
     27 N3         -1.0810   -8.1940   -0.5960 n4        1 MOL     -0.492747
     28 H8          1.8740   -3.8520    0.5350 hn        1 MOL      0.026562
     29 H9          3.4570   -6.1840   -0.2820 h1        1 MOL      0.055950
     30 H10         2.2040   -4.4030   -2.4470 hc        1 MOL     -0.010396
     31 H11         1.1340   -5.1520   -1.2980 hc        1 MOL     -0.010396
     32 H12         2.8680   -7.1250   -2.7040 hc        1 MOL      0.056653
     33 H13         1.3740   -6.4120   -3.3440 hc        1 MOL      0.056653
     34 H14         1.4710   -7.6790   -0.6020 hc        1 MOL      0.037492
     35 H15         1.2360   -8.6560   -2.0560 hc        1 MOL      0.037492
     36 H16        -0.6820   -7.4550   -2.5470 hx        1 MOL      0.025915
     37 H17        -0.5420   -6.2770   -1.3600 hx        1 MOL      0.025915
     38 H18        -1.2700   -9.1240   -0.9520 hn        1 MOL      0.346456
     39 H19        -0.5360   -8.2880    0.2430 hn        1 MOL      0.346456
     40 H20        -1.9630   -7.7200   -0.4350 hn        1 MOL      0.346456
     41 N4          4.7320   -3.4790   -1.4420 n         1 MOL     -0.370033
     42 C13         5.9900   -2.8550   -1.8940 c3        1 MOL      0.315161
     43 C14         6.8380   -2.1460   -0.7460 c         1 MOL      0.337945
     44 O6          7.9480   -2.5640   -0.4360 o         1 MOL     -0.524877
     45 C15         5.6220   -1.8440   -3.0130 c3        1 MOL     -0.469665
     46 C16         4.4620   -0.9420   -2.6310 c         1 MOL      0.895437
     47 O7          4.6430    0.1040   -1.9510 o         1 MOL     -0.756242
     48 O8          3.3100   -1.2870   -2.9740 o         1 MOL     -0.756242
     49 H21         3.9680   -2.8890   -1.1260 hn        1 MOL      0.229647
     50 H22         6.6060   -3.7200   -2.1390 h1        1 MOL      0.038584
     51 H23         5.4420   -2.4250   -3.9170 hc        1 MOL      0.101652
     52 H24         6.4940   -1.1840   -3.1010 hc        1 MOL      0.101652
     53 N5          6.3620   -1.0630   -0.0870 n         1 MOL      0.024926
     54 C17         7.0570   -0.1940    0.8640 c3        1 MOL     -0.402347
     55 C18         7.2440    1.2370    0.2030 c         1 MOL      0.609361
     56 O9          7.8320    2.0960    0.8520 o         1 MOL     -0.555946
     57 H25         5.4460   -0.7520   -0.3890 hn        1 MOL      0.100542
     58 H26         8.0540   -0.6120    1.0160 h1        1 MOL      0.181413
     59 H27         6.4660   -0.0780    1.7720 h1        1 MOL      0.181413
     60 N6          6.7200    1.5910   -0.9880 n         1 MOL     -0.397969
     61 C19         6.4960    2.9800   -1.4210 c3        1 MOL      0.343922
     62 C20         5.1280    3.4470   -1.1090 c         1 MOL      0.374144
     63 O10         4.2570    2.6550   -0.7490 o         1 MOL     -0.444379
     64 C21         6.5850    2.9400   -2.9590 c3        1 MOL     -0.457571
     65 C22         8.0130    2.7860   -3.5550 c         1 MOL      0.595450
     66 N7          8.1760    1.9940   -4.6530 n         1 MOL     -0.738730
     67 O11         9.0640    3.1480   -3.0200 o         1 MOL     -0.480437
     68 H28         6.1180    0.9870   -1.5400 hn        1 MOL      0.219467
     69 H29         7.2710    3.6010   -0.9680 h1        1 MOL     -0.005288
     70 H30         6.1760    3.8700   -3.3570 hc        1 MOL      0.102650
     71 H31         5.9790    2.1100   -3.3270 hc        1 MOL      0.102650
     72 H32         7.3600    1.8270   -5.2210 hn        1 MOL      0.348236
     73 H33         9.0880    1.7190   -4.9800 hn        1 MOL      0.348236
     74 N8          4.9000    4.7130   -1.2260 n         1 MOL     -0.266203
     75 C23         3.5570    5.3690   -1.1530 c3        1 MOL     -0.293657
     76 C24         2.7170    5.1600    0.1040 c         1 MOL      0.678414
     77 O12         3.2110    5.0300    1.2560 o         1 MOL     -0.511861
     78 H34         5.7350    5.2530   -1.4110 hn        1 MOL      0.285726
     79 H35         2.9890    5.0430   -2.0270 h1        1 MOL      0.125116
     80 H36         3.7030    6.4450   -1.1720 h1        1 MOL      0.125116
     81 N9          1.4180    5.0000   -0.0280 n         1 MOL     -0.637883
     82 C25         0.4430    4.6660    1.0590 c3        1 MOL      0.015607
     83 C26         0.5980    3.2160    1.4810 c         1 MOL      0.904954
     84 O13         1.4250    2.5110    0.9370 o         1 MOL     -0.663107
     85 C27        -0.9090    5.0530    0.4730 c3        1 MOL     -0.261767
     86 C28        -1.1780    6.5810    0.5400 ca        1 MOL      0.044306
     87 C29        -0.5570    7.4210   -0.3720 ca        1 MOL     -0.072876
     88 C30        -1.9980    7.1610    1.5350 ca        1 MOL     -0.072876
     89 C31        -0.7870    8.8160   -0.3620 ca        1 MOL     -0.380044
     90 C32        -2.1720    8.5130    1.6730 ca        1 MOL     -0.380044
     91 C33        -1.5820    9.3480    0.7260 ca        1 MOL      0.460054
     92 O14        -1.8180   10.6050    0.7790 oh        1 MOL     -0.440043
     93 H37         1.0020    5.1090   -0.9430 hn        1 MOL      0.303260
     94 H38         0.6450    5.2700    1.9430 h1        1 MOL      0.122693
     95 H39        -1.6970    4.4840    0.9650 hc        1 MOL      0.089370
     96 H40        -1.1000    4.7660   -0.5650 hc        1 MOL      0.089370
     97 H41         0.0240    6.9440   -1.1450 ha        1 MOL      0.113627
     98 H42        -2.4540    6.5430    2.2910 ha        1 MOL      0.113627
     99 H43        -0.1190    9.4790   -0.8890 ha        1 MOL      0.180702
    100 H44        -2.8010    8.9310    2.4560 ha        1 MOL      0.180702
    101 H45        -1.2200   11.1040    0.2250 ho        1 MOL      0.349300
    102 N10        -0.2920    2.7480    2.3370 n         1 MOL     -0.823638
    103 C34        -0.3460    1.3870    3.0130 c3        1 MOL      0.136469
    104 C35        -0.3480    0.2460    1.9940 c         1 MOL      0.595674
    105 O15         0.6400    0.0460    1.2730 o         1 MOL     -0.525100
    106 C36         0.8400    1.3030    4.0160 c3        1 MOL      0.073891
    107 C37         0.9780    0.0050    4.8880 c3        1 MOL      0.009098
    108 C38         0.7910    2.5410    4.9470 c3        1 MOL     -0.299455
    109 C39        -0.1930   -0.3650    5.8740 c3        1 MOL     -0.121463
    110 H46        -0.8880    3.4480    2.7570 hn        1 MOL      0.348306
    111 H47        -1.2780    1.4020    3.5790 h1        1 MOL      0.079757
    112 H48         1.7940    1.4170    3.4840 hc        1 MOL      0.095093
    113 H49         1.9410    0.0470    5.4080 hc        1 MOL      0.018076
    114 H50         1.1130   -0.7830    4.1470 hc        1 MOL      0.018076
    115 H51         1.5990    2.5290    5.6760 hc        1 MOL      0.081346
    116 H52         0.9450    3.5040    4.4470 hc        1 MOL      0.081346
    117 H53        -0.0870    2.5580    5.5960 hc        1 MOL      0.081346
    118 H54        -0.4230    0.5590    6.4050 hc        1 MOL      0.022460
    119 H55        -1.0850   -0.5360    5.2660 hc        1 MOL      0.022460
    120 H56         0.1140   -1.2350    6.4470 hc        1 MOL      0.022460
    121 N11        -1.4810   -0.4960    1.9240 n         1 MOL     -0.492211
    122 C40        -1.6740   -1.5990    0.9320 c3        1 MOL      0.028754
    123 C41        -3.1690   -1.8340    0.4950 c         1 MOL      0.553520
    124 O16        -3.4590   -2.8260   -0.1890 o         1 MOL     -0.538681
    125 C42        -1.0680   -2.9810    1.4030 c3        1 MOL      0.128942
    126 O17         0.0990   -3.2390    0.7030 oh        1 MOL     -0.392366
    127 H57        -2.2740   -0.1930    2.4690 hn        1 MOL      0.264462
    128 H58        -1.1480   -1.2570    0.0380 h1        1 MOL      0.101132
    129 H59        -1.6950   -3.8370    1.1470 h1        1 MOL      0.032374
    130 H60        -0.9840   -3.0250    2.4910 h1        1 MOL      0.032374
    131 H61        -0.1840   -3.3980   -0.2040 ho        1 MOL      0.315558
    132 N12        -4.0720   -0.9020    0.7750 n         1 MOL     -0.561050
    133 C43        -5.3860   -0.7970    0.1580 c3        1 MOL      0.097645
    134 C44        -5.3310   -0.3320   -1.2990 c         1 MOL      0.575731
    135 O18        -4.3080    0.1990   -1.8270 o         1 MOL     -0.576585
    136 C45        -6.3280   -0.1590    1.1140 c3        1 MOL     -0.197082
    137 H62        -3.7880   -0.0240    1.1920 hn        1 MOL      0.293696
    138 H63        -5.8230   -1.7970    0.0490 h1        1 MOL      0.134920
    139 H64        -6.2980   -0.6680    2.0720 hc        1 MOL      0.066248
    140 H65        -5.9570    0.8350    1.3680 hc        1 MOL      0.066248
    141 H66        -7.3610   -0.1990    0.7330 hc        1 MOL      0.066248
    142 N13        -6.3490   -0.6040   -2.1530 n         1 MOL     -0.607619
    143 C46        -7.5590   -1.3130   -1.9180 c3        1 MOL      0.452905
    144 C47        -8.7700   -0.5140   -2.5340 c         1 MOL      0.349777
    145 O19        -8.5930    0.1180   -3.5740 o         1 MOL     -0.519215
    146 C48        -7.3600   -2.6190   -2.6930 c3        1 MOL     -0.360720
    147 H67        -6.1800   -0.3580   -3.1180 hn        1 MOL      0.327543
    148 H68        -7.6820   -1.6250   -0.8760 h1        1 MOL     -0.050250
    149 H69        -6.5130   -3.1830   -2.2920 hc        1 MOL      0.092810
    150 H70        -8.2820   -3.2050   -2.7650 hc        1 MOL      0.092810
    151 H71        -7.2110   -2.3340   -3.7310 hc        1 MOL      0.092810
    152 N14        -9.9650   -0.5600   -1.9760 n         1 MOL     -0.365668
    153 C49       -10.4050   -1.5060   -0.9190 c3        1 MOL      0.016244
    154 C50        -9.9620   -0.9340    0.4120 c         1 MOL      0.461070
    155 O20        -9.3310   -1.6270    1.1660 o         1 MOL     -0.561935
    156 C51       -11.8930   -1.8430   -0.9750 c3        1 MOL      0.068469
    157 C52       -12.8990   -0.8280   -0.4470 c3        1 MOL     -0.232406
    158 C53       -12.9270    0.3700   -1.2710 c         1 MOL      0.739791
    159 O21       -13.4200    0.3100   -2.4560 o         1 MOL     -0.690465
    160 O22       -12.3900    1.3700   -0.8680 o         1 MOL     -0.690465
    161 H72       -10.6360    0.0350   -2.4460 hn        1 MOL      0.309568
    162 H73        -9.8470   -2.4330   -1.0540 h1        1 MOL      0.024722
    163 H74       -12.0480   -2.8250   -0.5260 hc        1 MOL      0.002825
    164 H75       -12.2070   -2.0270   -2.0030 hc        1 MOL      0.002825
    165 H76       -12.6660   -0.7060    0.6070 hc        1 MOL      0.042605
    166 H77       -13.9190   -1.1940   -0.3790 hc        1 MOL      0.042605
    167 N15       -10.1840    0.3380    0.6010 n         1 MOL     -0.193519
    168 C54        -9.8200    1.0370    1.8640 c3        1 MOL     -0.235442
    169 H78        -9.0930    0.4390    2.4130 h1        1 MOL      0.100154
    170 H79        -9.3880    2.0100    1.6300 h1        1 MOL      0.100154
    171 H80       -10.7120    1.1730    2.4750 h1        1 MOL      0.100154
    172 H81       -10.6960    0.8740   -0.0740 hn        1 MOL      0.218155
    173 Ca1         2.3770    0.7290   -0.7210 Ca        1 MOL      1.806047
    174 O23         0.0520    1.8240   -1.5380 oh        1 MOL     -0.844822
    175 H82        -0.5850    2.2390   -0.9600 ho        1 MOL      0.414961
    176 H83        -0.1970    2.1070   -2.4080 ho        1 MOL      0.414961
    177 O24         0.9440   -1.2140   -1.7810 oh        1 MOL     -0.844822
    178 H84         0.4180   -1.9850   -2.0190 ho        1 MOL      0.414961
    179 H85         1.7900   -1.3650   -2.2070 ho        1 MOL      0.414961
    180 O25         2.6710    1.9840   -3.1760 oh        1 MOL     -0.844822
    181 H86         2.8630    1.4050   -3.9130 ho        1 MOL      0.414961
    182 H87         2.6100    2.8590   -3.5690 ho        1 MOL      0.414961
@<TRIPOS>BOND
     1    1    2 1   
     2    1    4 1   
     3    1    5 1   
     4    1    6 1   
     5    2    3 2   
     6    2    7 1   
     7    7    8 1   
     8    7   15 1   
     9    8    9 1   
    10    8   11 1   
    11    8   16 1   
    12    9   10 2   
    13    9   19 1   
    14   11   12 1   
    15   11   17 1   
    16   11   18 1   
    17   12   13 1   
    18   12   14 1   
    19   19   20 1   
    20   19   28 1   
    21   20   21 1   
    22   20   23 1   
    23   20   29 1   
    24   21   22 2   
    25   21   41 1   
    26   23   24 1   
    27   23   30 1   
    28   23   31 1   
    29   24   25 1   
    30   24   32 1   
    31   24   33 1   
    32   25   26 1   
    33   25   34 1   
    34   25   35 1   
    35   26   27 1   
    36   26   36 1   
    37   26   37 1   
    38   27   38 1   
    39   27   39 1   
    40   27   40 1   
    41   41   42 1   
    42   41   49 1   
    43   42   43 1   
    44   42   45 1   
    45   42   50 1   
    46   43   44 2   
    47   43   53 1   
    48   45   46 1   
    49   45   51 1   
    50   45   52 1   
    51   46   47 1   
    52   46   48 1   
    53   53   54 1   
    54   53   57 1   
    55   54   55 1   
    56   54   58 1   
    57   54   59 1   
    58   55   56 2   
    59   55   60 1   
    60   60   61 1   
    61   60   68 1   
    62   61   62 1   
    63   61   64 1   
    64   61   69 1   
    65   62   63 2   
    66   62   74 1   
    67   64   65 1   
    68   64   70 1   
    69   64   71 1   
    70   65   66 1   
    71   65   67 2   
    72   66   72 1   
    73   66   73 1   
    74   74   75 1   
    75   74   78 1   
    76   75   76 1   
    77   75   79 1   
    78   75   80 1   
    79   76   77 2   
    80   76   81 1   
    81   81   82 1   
    82   81   93 1   
    83   82   83 1   
    84   82   85 1   
    85   82   94 1   
    86   83   84 2   
    87   83  102 1   
    88   85   86 1   
    89   85   95 1   
    90   85   96 1   
    91   86   87 ar  
    92   86   88 ar  
    93   87   89 ar  
    94   87   97 1   
    95   88   90 ar  
    96   88   98 1   
    97   89   91 ar  
    98   89   99 1   
    99   90   91 ar  
   100   90  100 1   
   101   91   92 1   
   102   92  101 1   
   103  102  103 1   
   104  102  110 1   
   105  103  104 1   
   106  103  106 1   
   107  103  111 1   
   108  104  105 2   
   109  104  121 1   
   110  106  107 1   
   111  106  108 1   
   112  106  112 1   
   113  107  109 1   
   114  107  113 1   
   115  107  114 1   
   116  108  115 1   
   117  108  116 1   
   118  108  117 1   
   119  109  118 1   
   120  109  119 1   
   121  109  120 1   
   122  121  122 1   
   123  121  127 1   
   124  122  123 1   
   125  122  125 1   
   126  122  128 1   
   127  123  124 2   
   128  123  132 1   
   129  125  126 1   
   130  125  129 1   
   131  125  130 1   
   132  126  131 1   
   133  132  133 1   
   134  132  137 1   
   135  133  134 1   
   136  133  136 1   
   137  133  138 1   
   138  134  135 2   
   139  134  142 1   
   140  136  139 1   
   141  136  140 1   
   142  136  141 1   
   143  142  143 1   
   144  142  147 1   
   145  143  144 1   
   146  143  146 1   
   147  143  148 1   
   148  144  145 2   
   149  144  152 1   
   150  146  149 1   
   151  146  150 1   
   152  146  151 1   
   153  152  153 1   
   154  152  161 1   
   155  153  154 1   
   156  153  156 1   
   157  153  162 1   
   158  154  155 2   
   159  154  167 1   
   160  156  157 1   
   161  156  163 1   
   162  156  164 1   
   163  157  158 1   
   164  157  165 1   
   165  157  166 1   
   166  158  159 1   
   167  158  160 1   
   168  167  168 1   
   169  167  172 1   
   170  168  169 1   
   171  168  170 1   
   172  168  171 1   
   173  174  175 1   
   174  174  176 1   
   175  177  178 1   
   176  177  179 1   
   177  180  181 1   
   178  180  182 1   
@<TRIPOS>SUBSTRUCTURE
     1 MOL         1 TEMP              0 ****  ****    0 ROOT
