@<TRIPOS>MOLECULE
MOL
  195   189     1     0     0
SMALL
resp


@<TRIPOS>ATOM
      1 C1          7.0900    1.7670    5.1440 c3        1 MOL     -0.370837
      2 C2          6.2220    1.5260    3.8790 c         1 MOL      0.675668
      3 O1          5.4660    2.3150    3.2810 o         1 MOL     -0.556271
      4 H1          7.6250    2.7110    5.0420 hc        1 MOL      0.104998
      5 H2          6.4480    1.8080    6.0240 hc        1 MOL      0.104998
      6 H3          7.8080    0.9540    5.2540 hc        1 MOL      0.104998
      7 N1          6.2710    0.2520    3.3360 n         1 MOL     -0.600619
      8 C3          5.7910   -0.1390    1.9580 c3        1 MOL      0.346884
      9 C4          4.2530   -0.0420    1.7820 c         1 MOL     -0.044431
     10 O2          3.7660   -0.3840    0.7080 o         1 MOL     -0.365388
     11 C5          6.2930   -1.4790    1.4280 c3        1 MOL     -0.195265
     12 C6          6.6830   -2.4010    2.5850 c         1 MOL      0.598914
     13 O3          7.9120   -2.7620    2.7110 o         1 MOL     -0.692502
     14 O4          5.7690   -2.7830    3.3290 o         1 MOL     -0.692502
     15 H4          6.8260   -0.3720    3.9030 hn        1 MOL      0.335444
     16 H5          6.1570    0.6400    1.2750 h1        1 MOL      0.077640
     17 H6          7.1610   -1.2620    0.8120 hc        1 MOL      0.039624
     18 H7          5.5180   -1.9240    0.8180 hc        1 MOL      0.039624
     19 N2          3.4690    0.4110    2.7930 n         1 MOL     -0.163391
     20 C7          2.0270    0.5030    2.7640 c3        1 MOL      0.128844
     21 C8          1.4430    1.8530    2.5450 c         1 MOL      0.444288
     22 O5          1.9030    2.8410    3.0810 o         1 MOL     -0.501065
     23 C9          1.5750   -0.0420    4.1410 c3        1 MOL     -0.169187
     24 C10         1.8660   -1.5390    4.2610 c3        1 MOL      0.324503
     25 C11         0.9630   -2.3720    5.2150 c3        1 MOL     -0.121273
     26 C12         1.3030   -3.8600    5.1600 c3        1 MOL      0.039607
     27 N3          2.2550   -4.1290    6.2250 n4        1 MOL     -0.283866
     28 H8          4.0160    0.8900    3.4990 hn        1 MOL      0.222759
     29 H9          1.7720   -0.1930    1.9700 h1        1 MOL      0.166145
     30 H10         0.4940    0.0320    4.2950 hc        1 MOL      0.046761
     31 H11         2.0680    0.5120    4.9450 hc        1 MOL      0.046761
     32 H12         2.8470   -1.6230    4.7380 hc        1 MOL     -0.097406
     33 H13         1.8880   -2.0750    3.3100 hc        1 MOL     -0.097406
     34 H14        -0.0770   -2.1770    4.9240 hc        1 MOL      0.034839
     35 H15         1.0440   -1.9070    6.1900 hc        1 MOL      0.034839
     36 H16         1.6000   -4.1050    4.1450 hx        1 MOL      0.083873
     37 H17         0.4640   -4.5000    5.4080 hx        1 MOL      0.083873
     38 H18         3.1960   -3.8800    5.9640 hn        1 MOL      0.305310
     39 H19         2.0950   -3.7020    7.1270 hn        1 MOL      0.305310
     40 H20         2.3130   -5.1260    6.3680 hn        1 MOL      0.305310
     41 N4          0.3140    1.9890    1.8410 n         1 MOL     -0.434450
     42 C13        -0.5490    0.9970    1.2450 c3        1 MOL      0.325482
     43 C14        -1.0710   -0.1470    2.1500 c         1 MOL      0.244516
     44 O6         -0.5850   -1.2640    2.2410 o         1 MOL     -0.484676
     45 C15        -0.1410    0.4630   -0.1010 c3        1 MOL     -0.177853
     46 C16         0.0170    1.4670   -1.2560 c         1 MOL      0.447126
     47 O7         -0.0830    2.6790   -0.9880 o         1 MOL     -0.635783
     48 O8          0.3230    1.0860   -2.3860 o         1 MOL     -0.635783
     49 H21         0.0480    2.9320    1.6180 hn        1 MOL      0.198858
     50 H22        -1.3870    1.6200    0.9350 h1        1 MOL     -0.103967
     51 H23        -0.8930   -0.2470   -0.4460 hc        1 MOL      0.097041
     52 H24         0.8250   -0.0230   -0.0040 hc        1 MOL      0.097041
     53 N5         -2.2370   -0.0790    2.7200 n         1 MOL     -0.191713
     54 C17        -3.2990    0.9750    2.5040 c3        1 MOL     -0.371776
     55 C18        -4.4770    0.7940    3.4490 c         1 MOL      0.581907
     56 O9         -4.5260   -0.1340    4.3160 o         1 MOL     -0.533894
     57 H25        -2.4900   -0.8960    3.2590 hn        1 MOL      0.264264
     58 H26        -3.6390    0.9210    1.4710 h1        1 MOL      0.204295
     59 H27        -2.9400    1.9790    2.7410 h1        1 MOL      0.204295
     60 N6         -5.3610    1.8390    3.4310 n         1 MOL     -0.450871
     61 C19        -5.4910    3.0290    2.6150 c3        1 MOL      0.146547
     62 C20        -6.2740    2.7840    1.2900 c         1 MOL      0.354694
     63 O10        -7.1690    1.9690    1.2020 o         1 MOL     -0.416573
     64 C21        -6.0920    4.1380    3.4080 c3        1 MOL     -0.125896
     65 C22        -7.4180    3.9230    4.1730 c         1 MOL      0.676246
     66 O11        -7.9860    2.7730    4.3610 o         1 MOL     -0.654260
     67 O12        -7.8610    4.9700    4.7420 o         1 MOL     -0.654260
     68 H28        -6.1800    1.7570    4.0160 hn        1 MOL      0.282508
     69 H29        -4.5080    3.4780    2.4460 h1        1 MOL     -0.033354
     70 H30        -6.3340    5.0230    2.8290 hc        1 MOL      0.011550
     71 H31        -5.3200    4.3850    4.1370 hc        1 MOL      0.011550
     72 N7         -5.8970    3.5650    0.2700 n         1 MOL     -0.078734
     73 C23        -6.5530    3.5300   -1.0410 c3        1 MOL     -0.426645
     74 C24        -6.2350    2.2840   -1.8470 c         1 MOL      0.641507
     75 O13        -6.9160    2.1360   -2.8440 o         1 MOL     -0.541056
     76 H32        -5.1850    4.2730    0.3950 hn        1 MOL      0.132210
     77 H33        -6.3060    4.4590   -1.5710 h1        1 MOL      0.180333
     78 H34        -7.6290    3.4690   -1.0330 h1        1 MOL      0.180333
     79 N8         -5.3330    1.2810   -1.4190 n         1 MOL     -0.455151
     80 C25        -5.2050   -0.0460   -2.0220 c3        1 MOL      0.197895
     81 C26        -5.3930   -1.0250   -0.9480 c         1 MOL      0.564037
     82 O14        -5.4900   -0.7820    0.2080 o         1 MOL     -0.454042
     83 C27        -3.8680   -0.1630   -2.7600 c3        1 MOL      0.263535
     84 C28        -3.7840    0.9320   -3.8600 c3        1 MOL     -0.140688
     85 O15        -3.6920   -1.3460   -3.5050 oh        1 MOL     -0.609220
     86 H35        -4.8100    1.4690   -0.5830 hn        1 MOL      0.073039
     87 H36        -5.9090   -0.2120   -2.8400 h1        1 MOL      0.073504
     88 H37        -3.0450   -0.0570   -2.0590 h1        1 MOL      0.082463
     89 H38        -2.7760   -1.3070   -3.7650 ho        1 MOL      0.408604
     90 H39        -3.8730    1.9140   -3.4040 hc        1 MOL      0.025673
     91 H40        -2.7910    0.8230   -4.2990 hc        1 MOL      0.025673
     92 H41        -4.5560    0.8510   -4.6320 hc        1 MOL      0.025673
     93 N9         -5.5030   -2.2970   -1.3700 n         1 MOL     -0.540094
     94 C29        -5.7940   -3.4820   -0.4600 c3        1 MOL     -0.063369
     95 C30        -4.5760   -4.3850   -0.4100 c         1 MOL      0.432465
     96 O16        -4.6130   -5.4920    0.0890 o         1 MOL     -0.538810
     97 C31        -7.1090   -4.2140   -0.7890 c3        1 MOL      0.094164
     98 C32        -7.2010   -4.7550   -2.2700 c3        1 MOL      0.409086
     99 C33        -8.3090   -3.3400   -0.4110 c3        1 MOL     -0.288336
    100 C34        -8.2510   -5.8090   -2.4830 c3        1 MOL     -0.277493
    101 H42        -5.4520   -2.4190   -2.3680 hn        1 MOL      0.255348
    102 H43        -5.7460   -3.1580    0.5880 h1        1 MOL      0.142635
    103 H44        -7.0520   -5.1660   -0.2590 hc        1 MOL      0.000235
    104 H45        -6.2700   -5.1970   -2.6120 hc        1 MOL     -0.091755
    105 H46        -7.4980   -3.8880   -2.8700 hc        1 MOL     -0.091755
    106 H47        -8.2600   -3.1090    0.6520 hc        1 MOL      0.081039
    107 H48        -8.3490   -2.3710   -0.9040 hc        1 MOL      0.081039
    108 H49        -9.2120   -3.9170   -0.6220 hc        1 MOL      0.081039
    109 H50        -8.0690   -6.6340   -1.7900 hc        1 MOL      0.050194
    110 H51        -9.2320   -5.3470   -2.4120 hc        1 MOL      0.050194
    111 H52        -8.1070   -6.1050   -3.5190 hc        1 MOL      0.050194
    112 N10        -3.4900   -3.9470   -1.0780 n         1 MOL     -0.060467
    113 C35        -2.1170   -4.5910   -1.0010 c3        1 MOL     -0.199474
    114 C36        -1.0020   -3.5960   -0.8810 c         1 MOL      0.594377
    115 O17        -1.1920   -2.4510   -1.2020 o         1 MOL     -0.479273
    116 C37        -1.8640   -5.3800   -2.2910 c3        1 MOL      0.498538
    117 C38        -2.0530   -4.6610   -3.6290 c3        1 MOL     -0.297530
    118 O18        -2.6710   -6.5750   -2.2170 oh        1 MOL     -0.627686
    119 H53        -3.6520   -3.0420   -1.4980 hn        1 MOL      0.029947
    120 H54        -2.0550   -5.2360   -0.1300 h1        1 MOL      0.083572
    121 H55        -0.8120   -5.6800   -2.2930 h1        1 MOL     -0.080959
    122 H56        -2.6470   -6.8870   -1.3140 ho        1 MOL      0.368954
    123 H57        -1.8770   -5.4400   -4.3750 hc        1 MOL      0.083256
    124 H58        -3.0590   -4.2400   -3.6510 hc        1 MOL      0.083256
    125 H59        -1.2940   -3.8860   -3.7020 hc        1 MOL      0.083256
    126 N11         0.2520   -4.0460   -0.5110 n         1 MOL     -0.527616
    127 C39         1.4470   -3.1660   -0.2660 c3        1 MOL      0.147808
    128 C40         2.0830   -2.7390   -1.6070 c         1 MOL      0.459009
    129 O19         1.9320   -3.4890   -2.5590 o         1 MOL     -0.540906
    130 C41         2.4740   -3.7580    0.7430 c3        1 MOL      0.590425
    131 C42         3.2830   -4.9840    0.1240 c3        1 MOL     -0.526913
    132 O20         1.8920   -4.2700    1.9540 oh        1 MOL     -0.641410
    133 H60         0.3440   -5.0020   -0.2130 hn        1 MOL      0.283999
    134 H61         1.0800   -2.2510    0.1880 h1        1 MOL     -0.037122
    135 H62         3.2810   -3.0520    0.9630 h1        1 MOL     -0.009076
    136 H63         2.6580   -4.5490    2.4580 ho        1 MOL      0.354103
    137 H64         3.9560   -4.5350   -0.5920 hc        1 MOL      0.112962
    138 H65         3.9060   -5.4710    0.8780 hc        1 MOL      0.112962
    139 H66         2.4970   -5.6130   -0.3040 hc        1 MOL      0.112962
    140 N12         2.8420   -1.6390   -1.6950 n         1 MOL     -0.199570
    141 C43         3.3530   -1.1240   -3.0080 c3        1 MOL     -0.075169
    142 C44         3.7260    0.2940   -3.0450 c         1 MOL      0.729784
    143 O21         3.7530    0.8230   -4.1180 o         1 MOL     -0.631942
    144 C45         4.5270   -2.0110   -3.5350 c3        1 MOL     -0.224332
    145 C46         5.7330   -1.9520   -2.5810 c3        1 MOL     -0.177292
    146 C47         6.8590   -2.9050   -2.9520 c3        1 MOL      0.093422
    147 C48         6.3830   -4.3220   -2.5400 c3        1 MOL      0.179947
    148 N13         7.4060   -5.2710   -2.8340 n4        1 MOL     -0.524163
    149 H67         3.0750   -1.1930   -0.8250 hn        1 MOL      0.056496
    150 H68         2.5630   -1.1830   -3.7580 h1        1 MOL      0.120529
    151 H69         4.6960   -1.6040   -4.5370 hc        1 MOL      0.082879
    152 H70         4.1780   -3.0280   -3.6910 hc        1 MOL      0.082879
    153 H71         5.4670   -2.0160   -1.5230 hc        1 MOL      0.081571
    154 H72         6.1280   -0.9420   -2.6960 hc        1 MOL      0.081571
    155 H73         7.7930   -2.6830   -2.4500 hc        1 MOL      0.007855
    156 H74         6.9910   -2.9500   -4.0280 hc        1 MOL      0.007855
    157 H75         5.4550   -4.6840   -2.9940 hx        1 MOL      0.049963
    158 H76         6.2090   -4.1950   -1.4770 hx        1 MOL      0.049963
    159 H77         7.0590   -6.2170   -2.8650 hn        1 MOL      0.355471
    160 H78         7.8300   -5.1780   -3.7410 hn        1 MOL      0.355471
    161 H79         8.0310   -5.3560   -2.0400 hn        1 MOL      0.355471
    162 N14         3.9380    0.9820   -1.9100 n         1 MOL     -0.135977
    163 C49         4.3290    2.4510   -1.8950 c3        1 MOL     -0.521100
    164 C50         5.8200    2.7220   -1.8770 c         1 MOL      0.411340
    165 O22         6.4990    2.0720   -1.1330 o         1 MOL     -0.510896
    166 C51         3.7150    3.0310   -0.5700 c3        1 MOL      1.029896
    167 C52         4.0380    4.4420   -0.0930 c3        1 MOL     -0.902584
    168 C53         3.4960    5.3750   -1.1780 c         1 MOL      1.012723
    169 O23         4.2110    5.6450   -2.1960 o         1 MOL     -0.841835
    170 O24         2.3440    5.8200   -0.9910 o         1 MOL     -0.841835
    171 H80         3.7380    0.5880   -1.0030 hn        1 MOL      0.142804
    172 H81         3.9500    2.9730   -2.7710 h1        1 MOL      0.161663
    173 H82         3.9310    2.3290    0.2310 hc        1 MOL     -0.195883
    174 H83         2.6360    2.9590   -0.7190 hc        1 MOL     -0.195883
    175 H84         5.1000    4.6440    0.0240 hc        1 MOL      0.212111
    176 H85         3.5790    4.7880    0.8330 hc        1 MOL      0.212111
    177 N15         6.3400    3.6270   -2.7110 n         1 MOL     -0.178363
    178 C54         7.7820    3.9190   -2.9730 c3        1 MOL     -0.306912
    179 H86         8.2560    4.2610   -2.0530 h1        1 MOL      0.121253
    180 H87         8.2790    3.0140   -3.3230 h1        1 MOL      0.121253
    181 H88         7.8620    4.6970   -3.7340 h1        1 MOL      0.121253
    182 H89         5.6960    4.0790   -3.3410 hn        1 MOL      0.323273
    183 Ca1        -0.2260    5.1930   -1.5250 Ca        1 MOL      1.628755
    184 O25        -1.8300    3.8510   -3.4270 oh        1 MOL     -0.784302
    185 H90        -1.5240    2.9880   -3.6970 ho        1 MOL      0.392782
    186 H91        -2.4080    4.1280   -4.1290 ho        1 MOL      0.392782
    187 O26         0.8350    7.1010   -2.8740 oh        1 MOL     -0.784302
    188 H92         0.6980    8.0380   -2.9870 ho        1 MOL      0.392782
    189 H93         1.6660    7.0340   -2.3960 ho        1 MOL      0.392782
    190 O27         1.2140    3.6980   -3.0830 oh        1 MOL     -0.784302
    191 H94         1.5390    3.4650   -3.9480 ho        1 MOL      0.392782
    192 H95         0.9690    2.8630   -2.6800 ho        1 MOL      0.392782
    193 O28        -2.0030    6.9910   -2.8440 oh        1 MOL     -0.784302
    194 H96        -2.8380    6.8090   -2.4020 ho        1 MOL      0.392782
    195 H97        -1.8500    7.9190   -2.6900 ho        1 MOL      0.392782
@<TRIPOS>BOND
     1    1    2 1   
     2    1    4 1   
     3    1    5 1   
     4    1    6 1   
     5    2    3 2   
     6    2    7 1   
     7    7    8 1   
     8    7   15 1   
     9    8    9 1   
    10    8   11 1   
    11    8   16 1   
    12    9   10 2   
    13    9   19 1   
    14   11   12 1   
    15   11   17 1   
    16   11   18 1   
    17   12   13 1   
    18   12   14 1   
    19   19   20 1   
    20   19   28 1   
    21   20   21 1   
    22   20   23 1   
    23   20   29 1   
    24   21   22 2   
    25   21   41 1   
    26   23   24 1   
    27   23   30 1   
    28   23   31 1   
    29   24   25 1   
    30   24   32 1   
    31   24   33 1   
    32   25   26 1   
    33   25   34 1   
    34   25   35 1   
    35   26   27 1   
    36   26   36 1   
    37   26   37 1   
    38   27   38 1   
    39   27   39 1   
    40   27   40 1   
    41   41   42 1   
    42   41   49 1   
    43   42   43 1   
    44   42   45 1   
    45   42   50 1   
    46   43   44 2   
    47   43   53 1   
    48   45   46 1   
    49   45   51 1   
    50   45   52 1   
    51   46   47 1   
    52   46   48 1   
    53   53   54 1   
    54   53   57 1   
    55   54   55 1   
    56   54   58 1   
    57   54   59 1   
    58   55   56 2   
    59   55   60 1   
    60   60   61 1   
    61   60   68 1   
    62   61   62 1   
    63   61   64 1   
    64   61   69 1   
    65   62   63 2   
    66   62   72 1   
    67   64   65 1   
    68   64   70 1   
    69   64   71 1   
    70   65   66 1   
    71   65   67 1   
    72   72   73 1   
    73   72   76 1   
    74   73   74 1   
    75   73   77 1   
    76   73   78 1   
    77   74   75 2   
    78   74   79 1   
    79   79   80 1   
    80   79   86 1   
    81   80   81 1   
    82   80   83 1   
    83   80   87 1   
    84   81   82 2   
    85   81   93 1   
    86   83   84 1   
    87   83   85 1   
    88   83   88 1   
    89   84   90 1   
    90   84   91 1   
    91   84   92 1   
    92   85   89 1   
    93   93   94 1   
    94   93  101 1   
    95   94   95 1   
    96   94   97 1   
    97   94  102 1   
    98   95   96 2   
    99   95  112 1   
   100   97   98 1   
   101   97   99 1   
   102   97  103 1   
   103   98  100 1   
   104   98  104 1   
   105   98  105 1   
   106   99  106 1   
   107   99  107 1   
   108   99  108 1   
   109  100  109 1   
   110  100  110 1   
   111  100  111 1   
   112  112  113 1   
   113  112  119 1   
   114  113  114 1   
   115  113  116 1   
   116  113  120 1   
   117  114  115 2   
   118  114  126 1   
   119  116  117 1   
   120  116  118 1   
   121  116  121 1   
   122  117  123 1   
   123  117  124 1   
   124  117  125 1   
   125  118  122 1   
   126  126  127 1   
   127  126  133 1   
   128  127  128 1   
   129  127  130 1   
   130  127  134 1   
   131  128  129 2   
   132  128  140 1   
   133  130  131 1   
   134  130  132 1   
   135  130  135 1   
   136  131  137 1   
   137  131  138 1   
   138  131  139 1   
   139  132  136 1   
   140  140  141 1   
   141  140  149 1   
   142  141  142 1   
   143  141  144 1   
   144  141  150 1   
   145  142  143 2   
   146  142  162 1   
   147  144  145 1   
   148  144  151 1   
   149  144  152 1   
   150  145  146 1   
   151  145  153 1   
   152  145  154 1   
   153  146  147 1   
   154  146  155 1   
   155  146  156 1   
   156  147  148 1   
   157  147  157 1   
   158  147  158 1   
   159  148  159 1   
   160  148  160 1   
   161  148  161 1   
   162  162  163 1   
   163  162  171 1   
   164  163  164 1   
   165  163  166 1   
   166  163  172 1   
   167  164  165 2   
   168  164  177 1   
   169  166  167 1   
   170  166  173 1   
   171  166  174 1   
   172  167  168 1   
   173  167  175 1   
   174  167  176 1   
   175  168  169 1   
   176  168  170 1   
   177  177  178 1   
   178  177  182 1   
   179  178  179 1   
   180  178  180 1   
   181  178  181 1   
   182  184  185 1   
   183  184  186 1   
   184  187  188 1   
   185  187  189 1   
   186  190  191 1   
   187  190  192 1   
   188  193  194 1   
   189  193  195 1   
@<TRIPOS>SUBSTRUCTURE
     1 MOL         1 TEMP              0 ****  ****    0 ROOT
