@<TRIPOS>MOLECULE
MOL
  198   191     1     0     0
SMALL
resp


@<TRIPOS>ATOM
      1 C1          2.2270    2.6020    0.6920 c3        1 MOL      0.121106
      2 C2          1.0110    3.2190    0.0250 c         1 MOL      0.476923
      3 O1         -0.0730    2.6500   -0.0860 o         1 MOL     -0.501479
      4 H1          3.0420    3.3250    0.6990 hc        1 MOL     -0.091985
      5 H2          1.9780    2.3240    1.7160 hc        1 MOL     -0.091985
      6 H3          2.5340    1.7150    0.1380 hc        1 MOL     -0.091985
      7 N1          1.2550    4.3590   -0.6230 n         1 MOL     -0.336773
      8 C3          0.2820    5.1280   -1.4340 c3        1 MOL      0.149388
      9 C4         -1.0910    5.3750   -0.7420 c         1 MOL      0.590820
     10 O2         -2.1120    5.2220   -1.3410 o         1 MOL     -0.507863
     11 C5          0.2310    4.6390   -2.9430 c3        1 MOL     -0.253242
     12 C6         -0.4860    5.6400   -3.9530 c         1 MOL      0.702374
     13 O3         -0.2590    6.9100   -3.7610 o         1 MOL     -0.603904
     14 O4         -1.0250    5.2890   -5.0110 o         1 MOL     -0.603904
     15 H4          2.2090    4.6730   -0.5840 hn        1 MOL      0.244857
     16 H5          0.7020    6.1250   -1.5170 h1        1 MOL     -0.023166
     17 H6         -0.2490    3.6650   -3.0270 hc        1 MOL      0.060129
     18 H7          1.2760    4.5000   -3.2150 hc        1 MOL      0.060129
     19 N2         -1.0770    5.6320    0.5750 n         1 MOL     -0.463033
     20 C7         -2.2860    5.7200    1.3890 c3        1 MOL      0.073878
     21 C8         -3.1960    6.8540    0.8520 c         1 MOL      0.597217
     22 O5         -2.6940    7.9260    0.5120 o         1 MOL     -0.593603
     23 C9         -2.0080    5.7790    2.8860 c3        1 MOL      0.082310
     24 C10        -1.7350    7.2370    3.4000 c3        1 MOL     -0.236765
     25 C11        -0.9170    4.8390    3.2960 c3        1 MOL     -0.247806
     26 C12        -2.8870    8.0780    3.8920 c3        1 MOL      0.203107
     27 H8         -0.1920    5.7930    1.0390 hn        1 MOL      0.207127
     28 H9         -2.7470    4.7450    1.2940 h1        1 MOL      0.094987
     29 H10        -2.9070    5.4740    3.4320 hc        1 MOL      0.061885
     30 H11        -1.1840    7.8000    2.6390 hc        1 MOL      0.037633
     31 H12        -1.0820    7.3020    4.2750 hc        1 MOL      0.037633
     32 H13        -1.2520    3.8110    3.1720 hc        1 MOL      0.064290
     33 H14        -0.0120    4.9830    2.7040 hc        1 MOL      0.064290
     34 H15        -0.7110    4.9960    4.3630 hc        1 MOL      0.064290
     35 H16        -3.2630    7.6470    4.8160 hc        1 MOL     -0.052362
     36 H17        -2.6360    9.1030    4.1600 hc        1 MOL     -0.052362
     37 H18        -3.7650    8.1090    3.2430 hc        1 MOL     -0.052362
     38 N3         -4.5220    6.7100    0.7190 n         1 MOL     -0.456043
     39 C13        -5.2740    5.4210    0.7820 c3        1 MOL     -0.020119
     40 C14        -6.3140    5.5380   -0.3550 c         1 MOL      0.488263
     41 O6         -7.0340    6.5670   -0.5490 o         1 MOL     -0.572324
     42 C15        -5.8240    5.1230    2.1530 c3        1 MOL     -0.112166
     43 C16        -6.6300    3.8260    2.2680 c         1 MOL      0.670922
     44 O7         -6.7350    3.2560    3.3790 o         1 MOL     -0.634285
     45 O8         -7.1300    3.2450    1.2640 o         1 MOL     -0.634285
     46 H19        -4.9960    7.5290    0.3810 hn        1 MOL      0.287804
     47 H20        -4.5950    4.6650    0.3620 h1        1 MOL      0.066420
     48 H21        -6.5690    5.8740    2.3880 hc        1 MOL      0.024591
     49 H22        -5.0300    5.2180    2.8920 hc        1 MOL      0.024591
     50 N4         -6.4350    4.4700   -1.1380 n         1 MOL     -0.142111
     51 C17        -7.4290    4.3500   -2.2510 c3        1 MOL     -0.238566
     52 C18        -7.7220    2.8680   -2.5780 c         1 MOL      0.528750
     53 O9         -8.8870    2.4950   -2.8210 o         1 MOL     -0.549784
     54 H23        -5.7610    3.7260   -1.0260 hn        1 MOL      0.192430
     55 H24        -6.9190    4.8350   -3.0820 h1        1 MOL      0.118544
     56 H25        -8.3450    4.8720   -1.9620 h1        1 MOL      0.118544
     57 N5         -6.6820    2.0010   -2.5540 n         1 MOL     -0.187148
     58 C19        -6.9000    0.5820   -2.9710 c3        1 MOL     -0.389803
     59 C20        -7.6060   -0.2700   -1.9260 c         1 MOL      0.632978
     60 O10        -8.2730   -1.2530   -2.2480 o         1 MOL     -0.602665
     61 C21        -5.5000    0.0080   -3.2570 c3        1 MOL      0.052654
     62 C22        -4.6140    0.0110   -2.0180 c         1 MOL      0.570705
     63 O11        -3.6960    0.8820   -1.9950 o         1 MOL     -0.599414
     64 O12        -4.7300   -0.9200   -1.1670 o         1 MOL     -0.599414
     65 H26        -5.7330    2.3250   -2.5340 hn        1 MOL      0.213103
     66 H27        -7.4710    0.5330   -3.9010 h1        1 MOL      0.150461
     67 H28        -4.9940    0.5170   -4.0690 hc        1 MOL      0.016255
     68 H29        -5.6040   -1.0250   -3.6100 hc        1 MOL      0.016255
     69 N6         -7.5360    0.1050   -0.6540 n         1 MOL     -0.115874
     70 C23        -8.2160   -0.7060    0.3630 c3        1 MOL     -0.339029
     71 C24        -7.7880   -2.0960    0.6860 c         1 MOL      0.687355
     72 O13        -8.4590   -2.6690    1.5460 o         1 MOL     -0.655478
     73 H30        -7.0980    0.9870   -0.4450 hn        1 MOL      0.199525
     74 H31        -9.2740   -0.8840    0.2080 h1        1 MOL      0.140403
     75 H32        -8.0660   -0.2670    1.3480 h1        1 MOL      0.140403
     76 N7         -6.9040   -2.7270   -0.0560 n         1 MOL     -0.182459
     77 C25        -6.4350   -4.1110   -0.1880 c3        1 MOL     -0.188434
     78 C26        -5.9750   -4.8540    1.1280 c         1 MOL      0.490378
     79 O14        -6.1070   -6.0820    1.1940 o         1 MOL     -0.487408
     80 C27        -7.4200   -4.9070   -1.0290 c3        1 MOL      0.477165
     81 C28        -7.5660   -4.5010   -2.4680 c3        1 MOL     -0.472222
     82 C29        -7.1240   -5.6250   -3.4490 c         1 MOL      0.653952
     83 N8         -7.3970   -5.3830   -4.7660 n         1 MOL     -0.830363
     84 O15        -6.5060   -6.6620   -3.1810 o         1 MOL     -0.533435
     85 H33        -6.5660   -2.0740   -0.7460 hn        1 MOL      0.047295
     86 H34        -5.5700   -4.0450   -0.8490 h1        1 MOL      0.137747
     87 H35        -8.4570   -4.9080   -0.6690 hc        1 MOL     -0.089275
     88 H36        -7.1160   -5.9520   -0.9330 hc        1 MOL     -0.089275
     89 H37        -6.9090   -3.6670   -2.7530 hc        1 MOL      0.148689
     90 H38        -8.6210   -4.3710   -2.6810 hc        1 MOL      0.148689
     91 H39        -7.7200   -4.4670   -5.0300 hn        1 MOL      0.352464
     92 H40        -7.1210   -6.0860   -5.4420 hn        1 MOL      0.352464
     93 N9         -5.4430   -4.0700    2.0740 n         1 MOL     -0.279107
     94 C30        -4.8300   -4.4830    3.3230 c3        1 MOL     -0.281713
     95 C31        -3.3380   -4.1000    3.5400 c         1 MOL      0.736808
     96 O16        -2.6880   -4.6480    4.4090 o         1 MOL     -0.637339
     97 C32        -5.7180   -4.0990    4.5590 c3        1 MOL      0.318508
     98 C33        -5.8290   -2.5310    4.6920 c3        1 MOL     -0.431612
     99 C34        -7.1560   -4.5760    4.3990 c3        1 MOL     -0.431612
    100 H41        -5.4430   -3.0860    1.8660 hn        1 MOL      0.201418
    101 H42        -4.8760   -5.5700    3.2200 h1        1 MOL      0.130535
    102 H43        -5.3180   -4.4980    5.4910 hc        1 MOL     -0.025807
    103 H44        -4.9100   -1.9930    4.9140 hc        1 MOL      0.109436
    104 H45        -6.3570   -2.1720    3.8050 hc        1 MOL      0.109436
    105 H46        -6.5400   -2.3890    5.5080 hc        1 MOL      0.109436
    106 H47        -7.1680   -5.6330    4.1420 hc        1 MOL      0.109436
    107 H48        -7.6040   -4.3300    5.3660 hc        1 MOL      0.109436
    108 H49        -7.6140   -4.0730    3.5490 hc        1 MOL      0.109436
    109 N10        -2.7210   -3.2350    2.7890 n         1 MOL     -0.575343
    110 C35        -1.3050   -2.8030    2.8450 c3        1 MOL      0.282898
    111 C36        -0.7680   -2.7090    1.4330 c         1 MOL      0.514218
    112 O17        -1.4550   -2.7190    0.4190 o         1 MOL     -0.514155
    113 C37        -1.2350   -1.4030    3.5240 c3        1 MOL     -0.122471
    114 C38         0.0230   -1.1550    4.2920 c         1 MOL      0.616617
    115 N11        -0.0270   -0.7050    5.5160 n         1 MOL     -0.752597
    116 O18         1.1100   -1.4690    3.9010 o         1 MOL     -0.561074
    117 H50        -3.3270   -2.6690    2.2050 hn        1 MOL      0.295530
    118 H51        -0.6960   -3.4890    3.4400 h1        1 MOL      0.063808
    119 H52        -2.0880   -1.3500    4.2000 hc        1 MOL      0.064182
    120 H53        -1.4110   -0.6080    2.7900 hc        1 MOL      0.064182
    121 H54        -0.8410   -0.3810    6.0140 hn        1 MOL      0.348182
    122 H55         0.9270   -0.6790    5.8340 hn        1 MOL      0.348182
    123 N12         0.5820   -2.5220    1.3640 n         1 MOL     -0.738112
    124 C39         1.2980   -2.6810    0.0810 c3        1 MOL      0.448050
    125 C40         2.8050   -3.0330    0.2570 c         1 MOL      0.577463
    126 O19         3.4440   -2.8850    1.2690 o         1 MOL     -0.587856
    127 C41         1.1750   -1.3750   -0.7920 c3        1 MOL     -0.071472
    128 C42         1.5150   -1.5840   -2.2570 ca        1 MOL     -0.114041
    129 C43         2.8510   -1.3980   -2.5840 ca        1 MOL     -0.050186
    130 C44         0.5460   -2.0400   -3.1540 ca        1 MOL     -0.050186
    131 C45         3.2540   -1.5800   -3.9180 ca        1 MOL     -0.345856
    132 C46         0.9070   -2.1340   -4.5410 ca        1 MOL     -0.345856
    133 C47         2.2310   -1.8990   -4.8660 ca        1 MOL      0.398128
    134 O20         2.6330   -2.0970   -6.1520 oh        1 MOL     -0.515012
    135 H56         1.1360   -2.3780    2.2020 hn        1 MOL      0.328265
    136 H57         0.8040   -3.4420   -0.5360 h1        1 MOL     -0.018433
    137 H58         1.8830   -0.6990   -0.3110 hc        1 MOL      0.100161
    138 H59         0.2470   -0.8160   -0.6760 hc        1 MOL      0.100161
    139 H60         3.5490   -0.9900   -1.8640 ha        1 MOL      0.139206
    140 H61        -0.4220   -2.2660   -2.7300 ha        1 MOL      0.139206
    141 H62         4.3100   -1.4600   -4.0540 ha        1 MOL      0.177560
    142 H63         0.1820   -2.2710   -5.3190 ha        1 MOL      0.177560
    143 H64         3.5820   -1.9700   -6.2250 ho        1 MOL      0.351341
    144 N13         3.2710   -3.8560   -0.6430 n         1 MOL     -0.819399
    145 C48         4.6130   -4.5550   -0.5240 c3        1 MOL      0.364495
    146 C49         5.6700   -4.0170   -1.6080 c         1 MOL      0.614154
    147 O21         5.6250   -4.3170   -2.7730 o         1 MOL     -0.561742
    148 C50         4.4630   -6.0460   -0.7380 c3        1 MOL      0.416367
    149 C51         5.6180   -6.7730   -0.1200 c3        1 MOL     -0.496276
    150 C52         5.4250   -8.3340   -0.2500 c         1 MOL      0.680280
    151 O22         5.4510   -8.8810   -1.3820 o         1 MOL     -0.633095
    152 O23         5.1390   -9.0300    0.7440 o         1 MOL     -0.633095
    153 H65         2.6430   -4.0760   -1.4060 hn        1 MOL      0.323038
    154 H66         4.9180   -4.4350    0.5130 h1        1 MOL      0.047612
    155 H67         4.3200   -6.2720   -1.7890 hc        1 MOL     -0.088359
    156 H68         3.5290   -6.3330   -0.2560 hc        1 MOL     -0.088359
    157 H69         5.6500   -6.4840    0.9300 hc        1 MOL      0.134834
    158 H70         6.5360   -6.5430   -0.6730 hc        1 MOL      0.134834
    159 N14         6.6750   -3.2200   -1.2330 n         1 MOL     -0.590822
    160 C53         6.7430   -2.4040   -0.0280 c3        1 MOL     -0.165459
    161 C54         7.1200   -3.2110    1.2420 c         1 MOL      0.194800
    162 O24         7.9150   -4.1810    1.1780 o         1 MOL     -0.504028
    163 C55         7.9070   -1.4180   -0.2700 c3        1 MOL      0.755990
    164 C56         7.7630   -0.3190   -1.3280 c3        1 MOL     -0.690688
    165 C57         8.8700    0.7430   -1.2960 c         1 MOL      0.537693
    166 O25         9.1990    1.2620   -0.2210 o         1 MOL     -0.542466
    167 O26         9.4940    0.9750   -2.3340 o         1 MOL     -0.542466
    168 H71         7.2800   -2.9820   -2.0060 hn        1 MOL      0.280652
    169 H72         5.7920   -1.9010    0.1130 h1        1 MOL      0.107999
    170 H73         8.8080   -1.9740   -0.5110 hc        1 MOL     -0.110652
    171 H74         8.0110   -0.8370    0.6500 hc        1 MOL     -0.110652
    172 H75         6.7870    0.1620   -1.2580 hc        1 MOL      0.140963
    173 H76         7.6920   -0.7840   -2.3160 hc        1 MOL      0.140963
    174 N15         6.5000   -2.9310    2.3950 n         1 MOL      0.071009
    175 C58         6.6740   -3.4690    3.7820 c3        1 MOL     -0.914782
    176 H77         6.2590   -4.4760    3.8350 h1        1 MOL      0.282323
    177 H78         7.7340   -3.4990    4.0290 h1        1 MOL      0.282323
    178 H79         6.1530   -2.8240    4.4900 h1        1 MOL      0.282323
    179 H80         5.8890   -2.1230    2.3400 hn        1 MOL      0.168674
    180 Ca1        11.1040    3.2050    0.6680 Ca        1 MOL      1.350861
    181 O27        12.1990    4.5750    2.6290 oh        1 MOL     -0.772440
    182 H81        13.1090    4.7520    2.8380 ho        1 MOL      0.338969
    183 H82        11.7250    5.3390    2.9570 ho        1 MOL      0.338969
    184 O28        11.6380    1.4480    2.6090 oh        1 MOL     -0.772440
    185 H83        10.8880    1.0960    3.0870 ho        1 MOL      0.338969
    186 H84        12.3650    0.8790    2.8450 ho        1 MOL      0.338969
    187 O29        10.9090    3.2760   -2.1940 oh        1 MOL     -0.772440
    188 H85        10.2400    2.6440   -2.4580 ho        1 MOL      0.338969
    189 H86        11.5060    3.3230   -2.9420 ho        1 MOL      0.338969
    190 O30        12.1970    1.0750   -0.8150 oh        1 MOL     -0.772440
    191 H87        12.9710    0.7100   -1.2250 ho        1 MOL      0.338969
    192 H88        11.5060    0.9890   -1.4690 ho        1 MOL      0.338969
    193 O31        11.8670    5.8420    0.0410 oh        1 MOL     -0.772440
    194 H89        11.2630    6.5860    0.1420 ho        1 MOL      0.338969
    195 H90        12.7370    6.2390    0.0050 ho        1 MOL      0.338969
    196 O32        13.8250    3.3610    0.1710 oh        1 MOL     -0.772440
    197 H91        14.3310    2.9020    0.8440 ho        1 MOL      0.338969
    198 H92        14.4100    3.3640   -0.5960 ho        1 MOL      0.338969
@<TRIPOS>BOND
     1    1    2 1   
     2    1    4 1   
     3    1    5 1   
     4    1    6 1   
     5    2    3 2   
     6    2    7 1   
     7    7    8 1   
     8    7   15 1   
     9    8    9 1   
    10    8   11 1   
    11    8   16 1   
    12    9   10 2   
    13    9   19 1   
    14   11   12 1   
    15   11   17 1   
    16   11   18 1   
    17   12   13 1   
    18   12   14 1   
    19   19   20 1   
    20   19   27 1   
    21   20   21 1   
    22   20   23 1   
    23   20   28 1   
    24   21   22 2   
    25   21   38 1   
    26   23   24 1   
    27   23   25 1   
    28   23   29 1   
    29   24   26 1   
    30   24   30 1   
    31   24   31 1   
    32   25   32 1   
    33   25   33 1   
    34   25   34 1   
    35   26   35 1   
    36   26   36 1   
    37   26   37 1   
    38   38   39 1   
    39   38   46 1   
    40   39   40 1   
    41   39   42 1   
    42   39   47 1   
    43   40   41 2   
    44   40   50 1   
    45   42   43 1   
    46   42   48 1   
    47   42   49 1   
    48   43   44 1   
    49   43   45 1   
    50   50   51 1   
    51   50   54 1   
    52   51   52 1   
    53   51   55 1   
    54   51   56 1   
    55   52   53 2   
    56   52   57 1   
    57   57   58 1   
    58   57   65 1   
    59   58   59 1   
    60   58   61 1   
    61   58   66 1   
    62   59   60 2   
    63   59   69 1   
    64   61   62 1   
    65   61   67 1   
    66   61   68 1   
    67   62   63 1   
    68   62   64 1   
    69   69   70 1   
    70   69   73 1   
    71   70   71 1   
    72   70   74 1   
    73   70   75 1   
    74   71   72 2   
    75   71   76 1   
    76   76   77 1   
    77   76   85 1   
    78   77   78 1   
    79   77   80 1   
    80   77   86 1   
    81   78   79 2   
    82   78   93 1   
    83   80   81 1   
    84   80   87 1   
    85   80   88 1   
    86   81   82 1   
    87   81   89 1   
    88   81   90 1   
    89   82   83 1   
    90   82   84 2   
    91   83   91 1   
    92   83   92 1   
    93   93   94 1   
    94   93  100 1   
    95   94   95 1   
    96   94   97 1   
    97   94  101 1   
    98   95   96 2   
    99   95  109 1   
   100   97   98 1   
   101   97   99 1   
   102   97  102 1   
   103   98  103 1   
   104   98  104 1   
   105   98  105 1   
   106   99  106 1   
   107   99  107 1   
   108   99  108 1   
   109  109  110 1   
   110  109  117 1   
   111  110  111 1   
   112  110  113 1   
   113  110  118 1   
   114  111  112 2   
   115  111  123 1   
   116  113  114 1   
   117  113  119 1   
   118  113  120 1   
   119  114  115 1   
   120  114  116 2   
   121  115  121 1   
   122  115  122 1   
   123  123  124 1   
   124  123  135 1   
   125  124  125 1   
   126  124  127 1   
   127  124  136 1   
   128  125  126 2   
   129  125  144 1   
   130  127  128 1   
   131  127  137 1   
   132  127  138 1   
   133  128  129 ar  
   134  128  130 ar  
   135  129  131 ar  
   136  129  139 1   
   137  130  132 ar  
   138  130  140 1   
   139  131  133 ar  
   140  131  141 1   
   141  132  133 ar  
   142  132  142 1   
   143  133  134 1   
   144  134  143 1   
   145  144  145 1   
   146  144  153 1   
   147  145  146 1   
   148  145  148 1   
   149  145  154 1   
   150  146  147 2   
   151  146  159 1   
   152  148  149 1   
   153  148  155 1   
   154  148  156 1   
   155  149  150 1   
   156  149  157 1   
   157  149  158 1   
   158  150  151 1   
   159  150  152 1   
   160  159  160 1   
   161  159  168 1   
   162  160  161 1   
   163  160  163 1   
   164  160  169 1   
   165  161  162 2   
   166  161  174 1   
   167  163  164 1   
   168  163  170 1   
   169  163  171 1   
   170  164  165 1   
   171  164  172 1   
   172  164  173 1   
   173  165  166 1   
   174  165  167 1   
   175  174  175 1   
   176  174  179 1   
   177  175  176 1   
   178  175  177 1   
   179  175  178 1   
   180  181  182 1   
   181  181  183 1   
   182  184  185 1   
   183  184  186 1   
   184  187  188 1   
   185  187  189 1   
   186  190  191 1   
   187  190  192 1   
   188  193  194 1   
   189  193  195 1   
   190  196  197 1   
   191  196  198 1   
@<TRIPOS>SUBSTRUCTURE
     1 MOL         1 TEMP              0 ****  ****    0 ROOT
