@<TRIPOS>MOLECULE
MOL
  192   187     1     0     0
SMALL
resp


@<TRIPOS>ATOM
      1 C1         -3.6730    7.5900    0.2490 c3        1 MOL     -0.297243
      2 C2         -3.9170    6.0630    0.3830 c         1 MOL      0.651290
      3 O1         -3.9950    5.6040    1.5110 o         1 MOL     -0.573417
      4 H1         -4.5600    8.1300    0.5790 hc        1 MOL      0.071066
      5 H2         -2.8220    7.8780    0.8660 hc        1 MOL      0.071066
      6 H3         -3.4660    7.8350   -0.7930 hc        1 MOL      0.071066
      7 N1         -4.0420    5.2940   -0.7070 n         1 MOL     -0.487622
      8 C3         -4.1590    3.8340   -0.6360 c3        1 MOL      0.069941
      9 C4         -2.7730    3.2540   -0.4410 c         1 MOL      0.521419
     10 O2         -2.6640    2.2130    0.1540 o         1 MOL     -0.542634
     11 C5         -4.9190    3.2830   -1.8610 c3        1 MOL     -0.422845
     12 C6         -4.5780    3.9440   -3.1890 c         1 MOL      0.711464
     13 O3         -3.6810    4.8740   -3.2720 o         1 MOL     -0.707088
     14 O4         -5.2400    3.6250   -4.1670 o         1 MOL     -0.707088
     15 H4         -3.9840    5.6770   -1.6440 hn        1 MOL      0.282102
     16 H5         -4.7400    3.5850    0.2520 h1        1 MOL      0.080081
     17 H6         -5.9860    3.4440   -1.7140 hc        1 MOL      0.118600
     18 H7         -4.8820    2.2100   -2.0360 hc        1 MOL      0.118600
     19 N2         -1.7960    3.9470   -1.0210 n         1 MOL     -0.293134
     20 C7         -0.3560    3.5600   -1.0140 c3        1 MOL      0.008087
     21 C8          0.2510    3.8800    0.3620 c         1 MOL      0.544721
     22 O5          0.0340    4.9850    0.8710 o         1 MOL     -0.566969
     23 C9          0.3670    4.0880   -2.2560 c3        1 MOL      0.008141
     24 C10        -0.0240    3.3690   -3.5840 c3        1 MOL      0.115499
     25 C11         0.4210    4.1650   -4.8130 c3        1 MOL     -0.041581
     26 C12        -0.1610    3.4540   -6.0920 c3        1 MOL     -0.021372
     27 N3         -0.6000    4.4530   -7.0630 n4        1 MOL     -0.242364
     28 H8         -1.9530    4.7900   -1.5430 hn        1 MOL      0.242104
     29 H9         -0.2530    2.4760   -1.0540 h1        1 MOL      0.083006
     30 H10         1.4380    3.8990   -2.1340 hc        1 MOL      0.002283
     31 H11         0.1760    5.1600   -2.3090 hc        1 MOL      0.002283
     32 H12        -1.1180    3.4380   -3.6100 hc        1 MOL     -0.008575
     33 H13         0.3650    2.3560   -3.6690 hc        1 MOL     -0.008575
     34 H14         1.5090    4.2460   -4.8390 hc        1 MOL      0.031473
     35 H15         0.0400    5.1740   -4.6430 hc        1 MOL      0.031473
     36 H16        -1.0180    2.8020   -5.9090 hx        1 MOL      0.098211
     37 H17         0.6420    2.8720   -6.5550 hx        1 MOL      0.098211
     38 H18        -0.9860    4.0580   -7.9100 hn        1 MOL      0.293999
     39 H19        -1.2940    5.0030   -6.5770 hn        1 MOL      0.293999
     40 H20         0.1250    5.1160   -7.3130 hn        1 MOL      0.293999
     41 N4          0.9810    2.9900    1.0530 n         1 MOL     -0.397848
     42 C13         1.4040    1.6220    0.7930 c3        1 MOL     -0.022323
     43 C14         2.0810    1.4730   -0.5980 c         1 MOL      0.382844
     44 O6          1.4730    0.8980   -1.5630 o         1 MOL     -0.516057
     45 C15         0.3530    0.5270    1.0260 c3        1 MOL     -0.079428
     46 C16        -0.3130    0.5750    2.4040 c         1 MOL      0.788002
     47 O7         -1.3680   -0.1010    2.5630 o         1 MOL     -0.822506
     48 O8          0.2140    1.1570    3.3670 o         1 MOL     -0.822506
     49 H21         1.3520    3.4640    1.8570 hn        1 MOL      0.284830
     50 H22         2.1540    1.5260    1.5800 h1        1 MOL      0.052867
     51 H23         0.8980   -0.4120    0.9230 hc        1 MOL      0.086074
     52 H24        -0.4470    0.5030    0.2810 hc        1 MOL      0.086074
     53 N5          3.2190    2.2080   -0.9060 n         1 MOL     -0.401216
     54 C17         4.0530    2.8830    0.0430 c3        1 MOL      0.255693
     55 C18         5.2960    3.4420   -0.7010 c         1 MOL      0.370676
     56 O9          5.1710    3.7640   -1.8760 o         1 MOL     -0.531199
     57 H25         3.5680    2.2280   -1.8610 hn        1 MOL      0.308149
     58 H26         4.3710    2.1980    0.8250 h1        1 MOL     -0.024906
     59 H27         3.5310    3.6870    0.5600 h1        1 MOL     -0.024906
     60 N6          6.4700    3.5450   -0.0870 n         1 MOL     -0.345170
     61 C19         6.9120    3.1690    1.2390 c3        1 MOL      0.046760
     62 C20         7.2780    1.7020    1.3370 c         1 MOL      0.557703
     63 O10         7.6830    1.0940    0.3410 o         1 MOL     -0.468708
     64 C21         7.9950    4.1430    1.7200 c3        1 MOL     -0.299725
     65 C22         9.0560    4.5530    0.6970 c         1 MOL      0.743356
     66 O11         8.9400    4.2560   -0.4900 o         1 MOL     -0.660975
     67 O12         9.9690    5.3310    1.1040 o         1 MOL     -0.660975
     68 H28         7.2390    3.9320   -0.6160 hn        1 MOL      0.309334
     69 H29         6.0260    3.2810    1.8670 h1        1 MOL     -0.002072
     70 H30         8.4720    3.9000    2.6730 hc        1 MOL      0.062480
     71 H31         7.2750    4.9270    1.9530 hc        1 MOL      0.062480
     72 N7          7.3130    1.2430    2.6130 n         1 MOL     -0.272563
     73 C23         7.9020   -0.0270    3.0440 c3        1 MOL     -0.294595
     74 C24         7.0820   -1.2030    2.6240 c         1 MOL      0.757072
     75 O13         7.1560   -2.2210    3.3080 o         1 MOL     -0.606645
     76 H32         6.7230    1.6570    3.3210 hn        1 MOL      0.237496
     77 H33         7.9800    0.0730    4.1290 h1        1 MOL      0.136676
     78 H34         8.8650   -0.1350    2.5260 h1        1 MOL      0.136676
     79 N8          6.2300   -1.0440    1.6230 n         1 MOL     -0.534005
     80 C25         5.2720   -2.0080    1.0350 c3        1 MOL      0.040062
     81 C26         5.1140   -1.9770   -0.4990 c         1 MOL      0.768602
     82 O14         5.0530   -0.9530   -1.1780 o         1 MOL     -0.520361
     83 C27         3.8650   -1.8630    1.6900 c3        1 MOL      0.146974
     84 C28         3.8080   -2.1160    3.1880 c3        1 MOL     -0.597886
     85 O15         2.9320   -2.7400    1.1820 oh        1 MOL     -0.556459
     86 H35         6.3710   -0.1840    1.1030 hn        1 MOL      0.183289
     87 H36         5.6480   -3.0160    1.2540 h1        1 MOL      0.083042
     88 H37         3.4070   -0.8900    1.4880 h1        1 MOL      0.096132
     89 H38         2.4180   -2.9970    1.9450 ho        1 MOL      0.406222
     90 H39         4.5180   -1.5430    3.7850 hc        1 MOL      0.151377
     91 H40         2.8060   -1.9850    3.5940 hc        1 MOL      0.151377
     92 H41         4.0640   -3.1540    3.4350 hc        1 MOL      0.151377
     93 N9          5.0580   -3.1660   -1.0710 n         1 MOL     -0.663311
     94 C29         4.7200   -3.3410   -2.4750 c3        1 MOL     -0.110431
     95 C30         3.2960   -3.8860   -2.6410 c         1 MOL      0.454384
     96 O16         2.9470   -4.2800   -3.7100 o         1 MOL     -0.542942
     97 C31         5.6920   -4.2540   -3.2590 c3        1 MOL      0.406406
     98 C32         5.7870   -5.7940   -2.8010 c3        1 MOL      0.040094
     99 C33         7.0610   -3.4970   -3.3530 c3        1 MOL     -0.277688
    100 C34         6.5030   -6.7220   -3.8460 c3        1 MOL     -0.192791
    101 H42         5.1820   -4.0150   -0.5430 hn        1 MOL      0.311301
    102 H43         4.7920   -2.3900   -3.0090 h1        1 MOL      0.137437
    103 H44         5.3170   -4.3220   -4.2730 hc        1 MOL     -0.070155
    104 H45         4.7640   -6.0820   -2.6110 hc        1 MOL     -0.026981
    105 H46         6.3860   -5.7360   -1.9000 hc        1 MOL     -0.026981
    106 H47         7.5320   -3.4810   -2.3690 hc        1 MOL      0.062394
    107 H48         7.8070   -3.9970   -3.9600 hc        1 MOL      0.062394
    108 H49         6.8540   -2.5110   -3.7600 hc        1 MOL      0.062394
    109 H50         7.4610   -6.2550   -4.0450 hc        1 MOL      0.048014
    110 H51         6.5880   -7.7480   -3.4790 hc        1 MOL      0.048014
    111 H52         5.9680   -6.7530   -4.7960 hc        1 MOL      0.048014
    112 N10         2.4850   -3.9930   -1.5680 n         1 MOL     -0.036571
    113 C35         1.0910   -4.5210   -1.6190 c3        1 MOL     -0.386574
    114 C36         0.0340   -3.6110   -1.0090 c         1 MOL      0.507504
    115 O17        -0.0610   -3.4390    0.2030 o         1 MOL     -0.450135
    116 C37         1.0020   -5.9340   -0.9950 c3        1 MOL      0.501652
    117 C38         2.0740   -6.9020   -1.5220 c3        1 MOL     -0.273546
    118 O18        -0.2290   -6.6000   -1.2710 oh        1 MOL     -0.608062
    119 H53         2.8450   -3.7090   -0.6690 hn        1 MOL      0.112477
    120 H54         0.8580   -4.6630   -2.6750 h1        1 MOL      0.137264
    121 H55         1.0720   -5.8990    0.0910 h1        1 MOL      0.021134
    122 H56        -0.4090   -6.5010   -2.2040 ho        1 MOL      0.359121
    123 H57         2.1500   -6.7240   -2.5970 hc        1 MOL      0.061370
    124 H58         3.0030   -6.5690   -1.0470 hc        1 MOL      0.061370
    125 H59         1.8830   -7.9200   -1.2000 hc        1 MOL      0.061370
    126 N11        -0.8740   -3.0840   -1.8770 n         1 MOL     -0.350159
    127 C39        -2.0680   -2.4060   -1.3280 c3        1 MOL     -0.162269
    128 C40        -3.2460   -3.3110   -1.0390 c         1 MOL      0.607774
    129 O19        -3.2020   -4.5280   -1.3220 o         1 MOL     -0.522854
    130 C41        -2.5200   -1.2030   -2.1970 c3        1 MOL      0.566138
    131 C42        -2.7610   -1.5390   -3.7130 c3        1 MOL     -0.651582
    132 O20        -1.5830   -0.1460   -2.1560 oh        1 MOL     -0.621715
    133 H60        -0.8780   -3.3360   -2.8560 hn        1 MOL      0.268822
    134 H61        -1.8160   -1.9790   -0.3560 h1        1 MOL      0.143263
    135 H62        -3.4440   -0.8030   -1.7820 h1        1 MOL     -0.026604
    136 H63        -1.9850    0.6830   -2.4230 ho        1 MOL      0.346763
    137 H64        -3.0590   -0.6360   -4.2420 hc        1 MOL      0.154415
    138 H65        -1.8320   -1.7640   -4.2350 hc        1 MOL      0.154415
    139 H66        -3.4680   -2.3600   -3.7940 hc        1 MOL      0.154415
    140 N12        -4.3360   -2.7810   -0.4030 n         1 MOL     -0.376159
    141 C43        -5.6160   -3.4190   -0.2000 c3        1 MOL     -0.189269
    142 C44        -6.4320   -2.9540    1.0260 c         1 MOL      0.563634
    143 O21        -7.4220   -3.5190    1.4510 o         1 MOL     -0.530733
    144 C45        -6.4800   -3.4400   -1.4750 c3        1 MOL     -0.045617
    145 C46        -6.5050   -2.0860   -2.2030 c3        1 MOL      0.082593
    146 C47        -7.0180   -2.2390   -3.6330 c3        1 MOL     -0.002934
    147 C48        -7.2260   -0.8910   -4.3830 c3        1 MOL      0.059080
    148 N13        -7.7480   -1.0210   -5.7710 n4        1 MOL     -0.219709
    149 H67        -4.2820   -1.8370   -0.0410 hn        1 MOL      0.198226
    150 H68        -5.4020   -4.4740    0.0060 h1        1 MOL      0.168491
    151 H69        -7.5240   -3.7180   -1.3040 hc        1 MOL      0.054563
    152 H70        -6.1460   -4.2630   -2.1120 hc        1 MOL      0.054563
    153 H71        -5.4960   -1.7000   -2.3090 hc        1 MOL     -0.008618
    154 H72        -7.1170   -1.3980   -1.6310 hc        1 MOL     -0.008618
    155 H73        -7.8650   -2.9280   -3.6280 hc        1 MOL     -0.005761
    156 H74        -6.2740   -2.7990   -4.1970 hc        1 MOL     -0.005761
    157 H75        -6.3040   -0.3350   -4.4940 hx        1 MOL      0.063305
    158 H76        -7.8700   -0.3260   -3.7050 hx        1 MOL      0.063305
    159 H77        -7.8990   -0.1630   -6.2810 hn        1 MOL      0.267870
    160 H78        -7.0300   -1.5080   -6.2960 hn        1 MOL      0.267870
    161 H79        -8.5800   -1.5920   -5.8380 hn        1 MOL      0.267870
    162 N14        -5.9530   -1.8320    1.6130 n         1 MOL     -0.411258
    163 C49        -6.6120   -1.2170    2.7410 c3        1 MOL     -0.196043
    164 C50        -7.2210    0.1460    2.3530 c         1 MOL      0.486565
    165 O22        -6.4910    1.0520    1.9100 o         1 MOL     -0.516621
    166 C51        -5.4780   -1.0730    3.7950 c3        1 MOL     -0.310105
    167 C52        -4.9500   -2.3890    4.3480 c3        1 MOL      0.160022
    168 C53        -4.0430   -2.1960    5.5680 c         1 MOL      0.518639
    169 O23        -3.0130   -1.6040    5.3940 o         1 MOL     -0.689565
    170 O24        -4.2570   -2.7930    6.6680 o         1 MOL     -0.689565
    171 H80        -5.2420   -1.3040    1.1350 hn        1 MOL      0.373881
    172 H81        -7.3670   -1.8280    3.2270 h1        1 MOL      0.166177
    173 H82        -5.7590   -0.4950    4.6670 hc        1 MOL      0.099845
    174 H83        -4.6000   -0.6260    3.3220 hc        1 MOL      0.099845
    175 H84        -4.4120   -2.9720    3.6100 hc        1 MOL      0.005640
    176 H85        -5.7600   -3.0630    4.6200 hc        1 MOL      0.005640
    177 N15        -8.5330    0.2580    2.3280 n         1 MOL     -0.241490
    178 C54        -9.2380    1.4180    1.8910 c3        1 MOL     -0.134511
    179 H86       -10.0950    1.5890    2.5430 h1        1 MOL      0.084924
    180 H87        -8.5750    2.2820    1.9290 h1        1 MOL      0.084924
    181 H88        -9.5850    1.2700    0.8690 h1        1 MOL      0.084924
    182 H89        -9.0990   -0.4200    2.8070 hn        1 MOL      0.239897
    183 Ca1        -1.1430    0.2250    5.2490 Ca        1 MOL      1.771307
    184 O25        -3.6290    1.5260    5.0790 oh        1 MOL     -0.897898
    185 H90        -4.5050    1.4920    5.4490 ho        1 MOL      0.451556
    186 H91        -3.7580    1.6940    4.1520 ho        1 MOL      0.451556
    187 O26         0.2550   -2.1400    4.6820 oh        1 MOL     -0.897898
    188 H92         0.6010   -2.7210    4.0020 ho        1 MOL      0.451556
    189 H93         0.7350   -2.3770    5.4760 ho        1 MOL      0.451556
    190 O27         1.2960    0.7760    6.3300 oh        1 MOL     -0.897898
    191 H94         1.7580    1.6110    6.2600 ho        1 MOL      0.451556
    192 H95         1.9660    0.1190    6.1620 ho        1 MOL      0.451556
@<TRIPOS>BOND
     1    1    2 1   
     2    1    4 1   
     3    1    5 1   
     4    1    6 1   
     5    2    3 2   
     6    2    7 1   
     7    7    8 1   
     8    7   15 1   
     9    8    9 1   
    10    8   11 1   
    11    8   16 1   
    12    9   10 2   
    13    9   19 1   
    14   11   12 1   
    15   11   17 1   
    16   11   18 1   
    17   12   13 1   
    18   12   14 1   
    19   19   20 1   
    20   19   28 1   
    21   20   21 1   
    22   20   23 1   
    23   20   29 1   
    24   21   22 2   
    25   21   41 1   
    26   23   24 1   
    27   23   30 1   
    28   23   31 1   
    29   24   25 1   
    30   24   32 1   
    31   24   33 1   
    32   25   26 1   
    33   25   34 1   
    34   25   35 1   
    35   26   27 1   
    36   26   36 1   
    37   26   37 1   
    38   27   38 1   
    39   27   39 1   
    40   27   40 1   
    41   41   42 1   
    42   41   49 1   
    43   42   43 1   
    44   42   45 1   
    45   42   50 1   
    46   43   44 2   
    47   43   53 1   
    48   45   46 1   
    49   45   51 1   
    50   45   52 1   
    51   46   47 1   
    52   46   48 1   
    53   53   54 1   
    54   53   57 1   
    55   54   55 1   
    56   54   58 1   
    57   54   59 1   
    58   55   56 2   
    59   55   60 1   
    60   60   61 1   
    61   60   68 1   
    62   61   62 1   
    63   61   64 1   
    64   61   69 1   
    65   62   63 2   
    66   62   72 1   
    67   64   65 1   
    68   64   70 1   
    69   64   71 1   
    70   65   66 1   
    71   65   67 1   
    72   72   73 1   
    73   72   76 1   
    74   73   74 1   
    75   73   77 1   
    76   73   78 1   
    77   74   75 2   
    78   74   79 1   
    79   79   80 1   
    80   79   86 1   
    81   80   81 1   
    82   80   83 1   
    83   80   87 1   
    84   81   82 2   
    85   81   93 1   
    86   83   84 1   
    87   83   85 1   
    88   83   88 1   
    89   84   90 1   
    90   84   91 1   
    91   84   92 1   
    92   85   89 1   
    93   93   94 1   
    94   93  101 1   
    95   94   95 1   
    96   94   97 1   
    97   94  102 1   
    98   95   96 2   
    99   95  112 1   
   100   97   98 1   
   101   97   99 1   
   102   97  103 1   
   103   98  100 1   
   104   98  104 1   
   105   98  105 1   
   106   99  106 1   
   107   99  107 1   
   108   99  108 1   
   109  100  109 1   
   110  100  110 1   
   111  100  111 1   
   112  112  113 1   
   113  112  119 1   
   114  113  114 1   
   115  113  116 1   
   116  113  120 1   
   117  114  115 2   
   118  114  126 1   
   119  116  117 1   
   120  116  118 1   
   121  116  121 1   
   122  117  123 1   
   123  117  124 1   
   124  117  125 1   
   125  118  122 1   
   126  126  127 1   
   127  126  133 1   
   128  127  128 1   
   129  127  130 1   
   130  127  134 1   
   131  128  129 2   
   132  128  140 1   
   133  130  131 1   
   134  130  132 1   
   135  130  135 1   
   136  131  137 1   
   137  131  138 1   
   138  131  139 1   
   139  132  136 1   
   140  140  141 1   
   141  140  149 1   
   142  141  142 1   
   143  141  144 1   
   144  141  150 1   
   145  142  143 2   
   146  142  162 1   
   147  144  145 1   
   148  144  151 1   
   149  144  152 1   
   150  145  146 1   
   151  145  153 1   
   152  145  154 1   
   153  146  147 1   
   154  146  155 1   
   155  146  156 1   
   156  147  148 1   
   157  147  157 1   
   158  147  158 1   
   159  148  159 1   
   160  148  160 1   
   161  148  161 1   
   162  162  163 1   
   163  162  171 1   
   164  163  164 1   
   165  163  166 1   
   166  163  172 1   
   167  164  165 2   
   168  164  177 1   
   169  166  167 1   
   170  166  173 1   
   171  166  174 1   
   172  167  168 1   
   173  167  175 1   
   174  167  176 1   
   175  168  169 1   
   176  168  170 1   
   177  177  178 1   
   178  177  182 1   
   179  178  179 1   
   180  178  180 1   
   181  178  181 1   
   182  184  185 1   
   183  184  186 1   
   184  187  188 1   
   185  187  189 1   
   186  190  191 1   
   187  190  192 1   
@<TRIPOS>SUBSTRUCTURE
     1 MOL         1 TEMP              0 ****  ****    0 ROOT
