@<TRIPOS>MOLECULE
MOL
  189   185     1     0     0
SMALL
resp


@<TRIPOS>ATOM
      1 C1         -6.0470   -3.5710   -4.0700 c3        1 MOL     -0.354517
      2 C2         -6.3020   -2.7100   -2.7640 c         1 MOL      0.820117
      3 O1         -5.4270   -2.5990   -1.8750 o         1 MOL     -0.720942
      4 H1         -6.1120   -4.6310   -3.8240 hc        1 MOL      0.091734
      5 H2         -6.7990   -3.3260   -4.8210 hc        1 MOL      0.091734
      6 H3         -5.0550   -3.3510   -4.4640 hc        1 MOL      0.091734
      7 N1         -7.4140   -1.9890   -2.6970 n         1 MOL     -0.702885
      8 C3         -7.7310   -1.1330   -1.6030 c3        1 MOL      0.204676
      9 C4         -6.6110   -0.1380   -1.3130 c         1 MOL      0.153864
     10 O2         -5.8630   -0.2170   -0.3390 o         1 MOL     -0.312012
     11 C5         -8.2630   -1.8930   -0.4190 c3        1 MOL     -0.013933
     12 C6         -7.4640   -3.1150    0.0330 c         1 MOL      0.762037
     13 O3         -6.5210   -3.0710    0.8760 o         1 MOL     -0.762257
     14 O4         -7.8480   -4.2440   -0.3820 o         1 MOL     -0.762257
     15 H4         -8.1150   -2.0500   -3.4170 hn        1 MOL      0.349174
     16 H5         -8.6100   -0.5670   -1.9150 h1        1 MOL      0.064647
     17 H6         -9.2490   -2.2830   -0.6970 hc        1 MOL     -0.013430
     18 H7         -8.3990   -1.2260    0.4220 hc        1 MOL     -0.013430
     19 N2         -6.4140    0.7250   -2.3380 n         1 MOL     -0.348832
     20 C7         -5.4100    1.8470   -2.4010 c3        1 MOL      0.059093
     21 C8         -5.5700    2.9370   -1.2350 c         1 MOL      0.317543
     22 O5         -5.4380    4.1110   -1.5360 o         1 MOL     -0.509394
     23 C9         -3.9660    1.3230   -2.3800 c3        1 MOL      0.180279
     24 C10        -2.8310    2.4160   -2.3760 c3        1 MOL      0.112383
     25 C11        -3.8510    0.2100   -3.3340 c3        1 MOL     -0.005304
     26 C12        -2.8060    3.3040   -3.5950 c3        1 MOL     -0.374485
     27 H8         -7.0970    0.6770   -3.0790 hn        1 MOL      0.268234
     28 H9         -5.5080    2.4530   -3.3050 h1        1 MOL      0.023087
     29 H10        -3.8650    0.9090   -1.3750 hc        1 MOL     -0.069767
     30 H11        -1.8420    1.9790   -2.3150 hc        1 MOL      0.047231
     31 H12        -2.9880    3.0090   -1.4750 hc        1 MOL      0.047231
     32 H13        -2.8160   -0.1220   -3.2330 hc        1 MOL     -0.027548
     33 H14        -4.5370   -0.6180   -3.1350 hc        1 MOL     -0.027548
     34 H15        -3.9740    0.5890   -4.3410 hc        1 MOL     -0.027548
     35 H16        -2.7660    2.7640   -4.5420 hc        1 MOL      0.072682
     36 H17        -3.5790    4.0670   -3.5030 hc        1 MOL      0.072682
     37 H18        -1.8770    3.8710   -3.4710 hc        1 MOL      0.072682
     38 N3         -5.9770    2.5350   -0.0010 n         1 MOL      0.009768
     39 C13        -6.8120    3.3160    0.8290 c3        1 MOL      0.003934
     40 C14        -6.1250    4.5570    1.4280 c         1 MOL      0.488796
     41 O6         -6.8210    5.5460    1.6070 o         1 MOL     -0.592354
     42 C15        -7.3030    2.5580    2.0480 c3        1 MOL     -0.273314
     43 C16        -8.0310    1.2040    1.8900 c         1 MOL      0.765694
     44 O7         -7.5160    0.3320    2.6330 o         1 MOL     -0.703582
     45 O8         -8.9330    1.0780    1.0070 o         1 MOL     -0.703582
     46 H19        -6.0300    1.5360    0.1220 hn        1 MOL      0.101247
     47 H20        -7.6860    3.6550    0.2730 h1        1 MOL      0.044479
     48 H21        -7.9780    3.1890    2.6130 hc        1 MOL      0.077817
     49 H22        -6.4330    2.3960    2.6910 hc        1 MOL      0.077817
     50 N4         -4.8390    4.6600    1.6870 n         1 MOL     -0.387872
     51 C17        -3.7990    3.6560    1.5150 c3        1 MOL      0.035884
     52 C18        -2.5580    3.9080    2.4830 c         1 MOL      0.549378
     53 O9         -2.0960    5.0540    2.6570 o         1 MOL     -0.589731
     54 H23        -4.6970    5.6070    2.0200 hn        1 MOL      0.269360
     55 H24        -3.3750    3.5530    0.5120 h1        1 MOL      0.029842
     56 H25        -4.1250    2.6350    1.7060 h1        1 MOL      0.029842
     57 N5         -1.9210    2.8830    3.1310 n         1 MOL     -0.396784
     58 C19        -1.8710    1.4300    2.7710 c3        1 MOL     -0.013844
     59 C20        -1.8000    1.0820    1.2460 c         1 MOL      0.674009
     60 O10        -2.6880    0.3840    0.7460 o         1 MOL     -0.767011
     61 C21        -2.9670    0.6870    3.5480 c3        1 MOL     -0.342432
     62 C22        -2.7970    0.8180    5.0880 c         1 MOL      0.730938
     63 O11        -1.7500    1.3370    5.5900 o         1 MOL     -0.717494
     64 O12        -3.7310    0.4100    5.8210 o         1 MOL     -0.717494
     65 H26        -1.1930    3.1590    3.7760 hn        1 MOL      0.267627
     66 H27        -0.9700    0.9410    3.1290 h1        1 MOL      0.084735
     67 H28        -2.8780   -0.3570    3.2560 hc        1 MOL      0.111657
     68 H29        -3.9680    1.0010    3.2690 hc        1 MOL      0.111657
     69 N6         -0.7490    1.4770    0.4960 n         1 MOL     -0.294124
     70 C23         0.3610    2.2700    0.9460 c3        1 MOL     -0.241613
     71 C24         0.9320    3.2060   -0.1950 c         1 MOL      0.597377
     72 O13         0.2360    3.3220   -1.2040 o         1 MOL     -0.507176
     73 H30        -0.7910    1.2980   -0.5030 hn        1 MOL      0.245352
     74 H31         1.1290    1.6180    1.3760 h1        1 MOL      0.091954
     75 H32         0.1030    2.9750    1.7270 h1        1 MOL      0.091954
     76 N7          2.1640    3.7160   -0.0220 n         1 MOL     -0.425523
     77 C25         2.6660    4.7240   -0.9320 c3        1 MOL     -0.116352
     78 C26         2.9370    4.2390   -2.3610 c         1 MOL      0.328059
     79 O14         2.9950    5.1250   -3.2340 o         1 MOL     -0.486557
     80 C27         3.9740    5.4350   -0.3120 c3        1 MOL      0.152814
     81 C28         3.6490    6.0070    1.0170 c3        1 MOL     -0.139124
     82 C29         4.8090    6.7720    1.7050 c         1 MOL      0.674963
     83 N8          4.4670    7.7620    2.4870 n         1 MOL     -0.816687
     84 O15         5.9540    6.6440    1.3540 o         1 MOL     -0.565602
     85 H33         2.7530    3.3670    0.7370 hn        1 MOL      0.299836
     86 H34         1.8690    5.4580   -0.9680 h1        1 MOL      0.168012
     87 H35         4.2780    6.2490   -0.9720 hc        1 MOL     -0.003355
     88 H36         4.8100    4.7500   -0.1750 hc        1 MOL     -0.003355
     89 H37         3.4500    5.1420    1.6520 hc        1 MOL      0.022074
     90 H38         2.6760    6.5000    0.9500 hc        1 MOL      0.022074
     91 H39         3.5160    7.8530    2.8200 hn        1 MOL      0.369884
     92 H40         5.2060    8.3890    2.7730 hn        1 MOL      0.369884
     93 N9          3.0450    2.8840   -2.6180 n         1 MOL     -0.021843
     94 C30         3.3590    2.1970   -3.8740 c3        1 MOL     -0.306054
     95 C31         4.6950    1.4510   -3.9110 c         1 MOL      0.600496
     96 O16         5.3980    1.3030   -4.9220 o         1 MOL     -0.570684
     97 C32         2.1920    1.4190   -4.4860 c3        1 MOL      0.241186
     98 C33         1.1030    2.3590   -4.8610 c3        1 MOL     -0.298473
     99 C34         1.6070    0.2940   -3.5730 c3        1 MOL     -0.298473
    100 H41         3.0550    2.2550   -1.8340 hn        1 MOL      0.167897
    101 H42         3.5750    2.9490   -4.6350 h1        1 MOL      0.116761
    102 H43         2.4820    0.9120   -5.4070 hc        1 MOL      0.012077
    103 H44         1.3070    3.1630   -5.5630 hc        1 MOL      0.078781
    104 H45         0.2500    1.8120   -5.2830 hc        1 MOL      0.078781
    105 H46         0.7340    2.8530   -3.9610 hc        1 MOL      0.078781
    106 H47         2.4040   -0.4400   -3.3880 hc        1 MOL      0.078781
    107 H48         1.3660    0.6110   -2.5550 hc        1 MOL      0.078781
    108 H49         0.7290   -0.0790   -4.0850 hc        1 MOL      0.078781
    109 N10         5.1040    0.9620   -2.7590 n         1 MOL     -0.348659
    110 C35         6.4010    0.2570   -2.4890 c3        1 MOL      0.102179
    111 C36         6.4590   -1.0450   -1.7660 c         1 MOL      0.572788
    112 O17         7.0710   -1.9970   -2.2390 o         1 MOL     -0.565028
    113 C37         7.3830    1.3540   -1.9020 c3        1 MOL     -0.384580
    114 C38         7.0030    1.9780   -0.5920 c         1 MOL      0.654439
    115 N11         7.8280    2.8030    0.1060 n         1 MOL     -0.805886
    116 O18         5.8610    1.8090   -0.1410 o         1 MOL     -0.508904
    117 H50         4.6590    1.2280   -1.8890 hn        1 MOL      0.161384
    118 H51         6.7890    0.0490   -3.4900 h1        1 MOL      0.081869
    119 H52         7.3570    2.1670   -2.6350 hc        1 MOL      0.125428
    120 H53         8.3690    0.8890   -1.8840 hc        1 MOL      0.125428
    121 H54         8.7940    2.8960   -0.1680 hn        1 MOL      0.389725
    122 H55         7.4270    3.1750    0.9590 hn        1 MOL      0.389725
    123 N12         5.7410   -1.1630   -0.6330 n         1 MOL     -0.497108
    124 C39         5.8150   -2.2380    0.3270 c3        1 MOL      0.183362
    125 C40         4.4380   -2.8250    0.5000 c         1 MOL      0.647622
    126 O19         3.3880   -2.1960    0.2430 o         1 MOL     -0.525042
    127 C41         6.3480   -1.6740    1.6610 c3        1 MOL     -0.304608
    128 C42         7.6660   -0.9350    1.5030 ca        1 MOL      0.114495
    129 C43         7.8790    0.3410    2.0490 ca        1 MOL     -0.120144
    130 C44         8.7680   -1.7420    1.0780 ca        1 MOL     -0.120144
    131 C45         9.1930    0.8930    1.9600 ca        1 MOL     -0.269523
    132 C46        10.0080   -1.1470    0.9220 ca        1 MOL     -0.269523
    133 C47        10.2660    0.1550    1.3190 ca        1 MOL      0.312986
    134 O20        11.4930    0.7610    1.1780 oh        1 MOL     -0.534638
    135 H56         5.3730   -0.2790   -0.3160 hn        1 MOL      0.261019
    136 H57         6.4790   -2.9890   -0.0960 h1        1 MOL      0.031221
    137 H58         6.4630   -2.5540    2.2830 hc        1 MOL      0.102434
    138 H59         5.6080   -0.9530    2.0120 hc        1 MOL      0.102434
    139 H60         7.0410    0.8810    2.4430 ha        1 MOL      0.132056
    140 H61         8.6750   -2.7990    0.8530 ha        1 MOL      0.132056
    141 H62         9.3970    1.8410    2.4400 ha        1 MOL      0.136959
    142 H63        10.6950   -1.7070    0.2960 ha        1 MOL      0.136959
    143 H64        12.1890    0.2520    0.7380 ho        1 MOL      0.382955
    144 N13         4.4270   -4.1070    0.9350 n         1 MOL     -0.716677
    145 C48         3.3380   -4.9620    1.4730 c3        1 MOL      0.162010
    146 C49         2.0930   -5.1580    0.5360 c         1 MOL      0.436804
    147 O21         1.4210   -6.1590    0.7410 o         1 MOL     -0.541268
    148 C50         2.9470   -4.5740    2.9210 c3        1 MOL      0.068196
    149 C51         4.0330   -4.9680    3.8960 c3        1 MOL     -0.183505
    150 C52         3.5880   -4.7750    5.3140 c         1 MOL      0.664032
    151 O22         2.6670   -5.4800    5.7710 o         1 MOL     -0.709050
    152 O23         4.3770   -4.1310    6.0820 o         1 MOL     -0.709050
    153 H65         5.2970   -4.4740    1.2990 hn        1 MOL      0.356606
    154 H66         3.8760   -5.8940    1.6670 h1        1 MOL      0.019451
    155 H67         2.0380   -5.1320    3.1580 hc        1 MOL      0.022768
    156 H68         2.6070   -3.5290    2.9410 hc        1 MOL      0.022768
    157 H69         4.8700   -4.2900    3.6870 hc        1 MOL      0.008590
    158 H70         4.3960   -5.9490    3.6090 hc        1 MOL      0.008590
    159 N14         1.9060   -4.2850   -0.4460 n         1 MOL     -0.209499
    160 C53         0.7600   -4.4220   -1.3460 c3        1 MOL     -0.288966
    161 C54         0.8080   -5.5610   -2.3990 c         1 MOL      0.418295
    162 O24        -0.1170   -5.9140   -3.1010 o         1 MOL     -0.519488
    163 C55         0.6060   -3.0670   -2.0160 c3        1 MOL     -0.038756
    164 C56         0.1310   -1.9570   -1.1120 c3        1 MOL      0.033885
    165 C57        -1.3060   -2.3040   -0.6370 c         1 MOL      0.520886
    166 O25        -2.2820   -2.2140   -1.4160 o         1 MOL     -0.646205
    167 O26        -1.5090   -2.6950    0.5520 o         1 MOL     -0.646205
    168 H71         2.4430   -3.4400   -0.5710 hn        1 MOL      0.223131
    169 H72        -0.1500   -4.6470   -0.7820 h1        1 MOL      0.259352
    170 H73        -0.1530   -3.2210   -2.7890 hc        1 MOL      0.025963
    171 H74         1.5550   -2.7940   -2.4790 hc        1 MOL      0.025963
    172 H75         0.1530   -1.0030   -1.6340 hc        1 MOL     -0.006025
    173 H76         0.7880   -1.7670   -0.2580 hc        1 MOL     -0.006025
    174 N15         1.9440   -6.1730   -2.6110 n         1 MOL     -0.088851
    175 C58         2.3060   -7.1680   -3.6270 c3        1 MOL     -0.270875
    176 H77         2.3900   -6.6800   -4.5990 h1        1 MOL      0.101037
    177 H78         3.2610   -7.6240   -3.3650 h1        1 MOL      0.101037
    178 H79         1.5370   -7.9380   -3.6730 h1        1 MOL      0.101037
    179 H80         2.7180   -5.9190   -2.0030 hn        1 MOL      0.155060
    180 Ca1        -4.1440   -2.0010    0.4040 Ca        1 MOL      1.802956
    181 O27        -5.4050   -1.0670    2.3960 oh        1 MOL     -0.818519
    182 H81        -5.6410   -1.7870    2.9890 ho        1 MOL      0.400961
    183 H82        -6.1620   -0.4870    2.4080 ho        1 MOL      0.400961
    184 O28        -3.7330   -4.5860   -0.0020 oh        1 MOL     -0.818519
    185 H83        -4.6180   -4.9630   -0.0540 ho        1 MOL      0.400961
    186 H84        -3.3650   -4.7100   -0.8780 ho        1 MOL      0.400961
    187 O29        -3.3730   -3.1520    2.8640 oh        1 MOL     -0.818519
    188 H85        -3.0410   -4.0470    2.8720 ho        1 MOL      0.400961
    189 H86        -3.0820   -2.7770    3.6900 ho        1 MOL      0.400961
@<TRIPOS>BOND
     1    1    2 1   
     2    1    4 1   
     3    1    5 1   
     4    1    6 1   
     5    2    3 2   
     6    2    7 1   
     7    7    8 1   
     8    7   15 1   
     9    8    9 1   
    10    8   11 1   
    11    8   16 1   
    12    9   10 2   
    13    9   19 1   
    14   11   12 1   
    15   11   17 1   
    16   11   18 1   
    17   12   13 1   
    18   12   14 1   
    19   19   20 1   
    20   19   27 1   
    21   20   21 1   
    22   20   23 1   
    23   20   28 1   
    24   21   22 2   
    25   21   38 1   
    26   23   24 1   
    27   23   25 1   
    28   23   29 1   
    29   24   26 1   
    30   24   30 1   
    31   24   31 1   
    32   25   32 1   
    33   25   33 1   
    34   25   34 1   
    35   26   35 1   
    36   26   36 1   
    37   26   37 1   
    38   38   39 1   
    39   38   46 1   
    40   39   40 1   
    41   39   42 1   
    42   39   47 1   
    43   40   41 2   
    44   40   50 1   
    45   42   43 1   
    46   42   48 1   
    47   42   49 1   
    48   43   44 1   
    49   43   45 1   
    50   50   51 1   
    51   50   54 1   
    52   51   52 1   
    53   51   55 1   
    54   51   56 1   
    55   52   53 2   
    56   52   57 1   
    57   57   58 1   
    58   57   65 1   
    59   58   59 1   
    60   58   61 1   
    61   58   66 1   
    62   59   60 2   
    63   59   69 1   
    64   61   62 1   
    65   61   67 1   
    66   61   68 1   
    67   62   63 1   
    68   62   64 1   
    69   69   70 1   
    70   69   73 1   
    71   70   71 1   
    72   70   74 1   
    73   70   75 1   
    74   71   72 2   
    75   71   76 1   
    76   76   77 1   
    77   76   85 1   
    78   77   78 1   
    79   77   80 1   
    80   77   86 1   
    81   78   79 2   
    82   78   93 1   
    83   80   81 1   
    84   80   87 1   
    85   80   88 1   
    86   81   82 1   
    87   81   89 1   
    88   81   90 1   
    89   82   83 1   
    90   82   84 2   
    91   83   91 1   
    92   83   92 1   
    93   93   94 1   
    94   93  100 1   
    95   94   95 1   
    96   94   97 1   
    97   94  101 1   
    98   95   96 2   
    99   95  109 1   
   100   97   98 1   
   101   97   99 1   
   102   97  102 1   
   103   98  103 1   
   104   98  104 1   
   105   98  105 1   
   106   99  106 1   
   107   99  107 1   
   108   99  108 1   
   109  109  110 1   
   110  109  117 1   
   111  110  111 1   
   112  110  113 1   
   113  110  118 1   
   114  111  112 2   
   115  111  123 1   
   116  113  114 1   
   117  113  119 1   
   118  113  120 1   
   119  114  115 1   
   120  114  116 2   
   121  115  121 1   
   122  115  122 1   
   123  123  124 1   
   124  123  135 1   
   125  124  125 1   
   126  124  127 1   
   127  124  136 1   
   128  125  126 2   
   129  125  144 1   
   130  127  128 1   
   131  127  137 1   
   132  127  138 1   
   133  128  129 ar  
   134  128  130 ar  
   135  129  131 ar  
   136  129  139 1   
   137  130  132 ar  
   138  130  140 1   
   139  131  133 ar  
   140  131  141 1   
   141  132  133 ar  
   142  132  142 1   
   143  133  134 1   
   144  134  143 1   
   145  144  145 1   
   146  144  153 1   
   147  145  146 1   
   148  145  148 1   
   149  145  154 1   
   150  146  147 2   
   151  146  159 1   
   152  148  149 1   
   153  148  155 1   
   154  148  156 1   
   155  149  150 1   
   156  149  157 1   
   157  149  158 1   
   158  150  151 1   
   159  150  152 1   
   160  159  160 1   
   161  159  168 1   
   162  160  161 1   
   163  160  163 1   
   164  160  169 1   
   165  161  162 2   
   166  161  174 1   
   167  163  164 1   
   168  163  170 1   
   169  163  171 1   
   170  164  165 1   
   171  164  172 1   
   172  164  173 1   
   173  165  166 1   
   174  165  167 1   
   175  174  175 1   
   176  174  179 1   
   177  175  176 1   
   178  175  177 1   
   179  175  178 1   
   180  181  182 1   
   181  181  183 1   
   182  184  185 1   
   183  184  186 1   
   184  187  188 1   
   185  187  189 1   
@<TRIPOS>SUBSTRUCTURE
     1 MOL         1 TEMP              0 ****  ****    0 ROOT
