@<TRIPOS>MOLECULE
MOL
  188   182     1     0     0
SMALL
resp


@<TRIPOS>ATOM
      1 C1         -6.4070   -2.3560    3.5570 c3        1 MOL     -0.465867
      2 C2         -6.8120   -2.2820    2.0360 c         1 MOL      0.561174
      3 O1         -5.9350   -1.9920    1.2120 o         1 MOL     -0.515651
      4 H1         -7.3050   -2.3160    4.1740 hc        1 MOL      0.125873
      5 H2         -5.8780   -3.2890    3.7470 hc        1 MOL      0.125873
      6 H3         -5.7610   -1.5130    3.8030 hc        1 MOL      0.125873
      7 N1         -8.0850   -2.5220    1.5760 n         1 MOL     -0.495658
      8 C3         -8.6510   -2.2800    0.2250 c3        1 MOL      0.269135
      9 C4         -8.5380   -0.8970   -0.3740 c         1 MOL      0.356868
     10 O2         -8.2330   -0.6820   -1.5960 o         1 MOL     -0.451140
     11 C5         -8.1980   -3.4360   -0.6780 c3        1 MOL     -0.213520
     12 C6         -9.2640   -3.5970   -1.8210 c         1 MOL      0.609093
     13 O3         -8.8220   -4.2440   -2.8220 o         1 MOL     -0.620863
     14 O4        -10.3980   -3.0460   -1.7910 o         1 MOL     -0.620863
     15 H4         -8.7160   -2.6720    2.3500 hn        1 MOL      0.282371
     16 H5         -9.7190   -2.4060    0.3900 h1        1 MOL     -0.014096
     17 H6         -8.1770   -4.3380   -0.0670 hc        1 MOL      0.076138
     18 H7         -7.2030   -3.2420   -1.0600 hc        1 MOL      0.076138
     19 N2         -8.6200    0.1700    0.4280 n         1 MOL     -0.254774
     20 C7         -8.5740    1.5570   -0.0200 c3        1 MOL     -0.091611
     21 C8         -7.1340    2.1310   -0.1150 c         1 MOL      0.572095
     22 O5         -6.9580    3.3540   -0.2300 o         1 MOL     -0.566793
     23 C9         -9.5680    2.2190    0.9660 c3        1 MOL      0.237411
     24 C10       -10.0930    3.5550    0.3870 c3        1 MOL     -0.108193
     25 C11       -10.9840    4.2560    1.4490 c3        1 MOL     -0.056888
     26 C12       -11.0960    5.7420    1.3120 c3        1 MOL      0.166797
     27 N3        -12.0510    6.3430    2.2770 n4        1 MOL     -0.378295
     28 H8         -8.9400   -0.0800    1.3520 hn        1 MOL      0.146276
     29 H9         -9.0220    1.5860   -1.0180 h1        1 MOL      0.119638
     30 H10        -9.1120    2.4440    1.9240 hc        1 MOL     -0.032254
     31 H11       -10.4100    1.5550    1.1560 hc        1 MOL     -0.032254
     32 H12       -10.6970    3.3300   -0.4980 hc        1 MOL      0.041746
     33 H13        -9.2560    4.2220    0.2160 hc        1 MOL      0.041746
     34 H14       -10.5560    4.0610    2.4260 hc        1 MOL      0.027295
     35 H15       -11.9040    3.6680    1.3760 hc        1 MOL      0.027295
     36 H16       -11.5300    5.9240    0.3260 hx        1 MOL      0.050852
     37 H17       -10.1450    6.2690    1.2890 hx        1 MOL      0.050852
     38 H18       -11.5670    6.4180    3.1570 hn        1 MOL      0.259642
     39 H19       -12.4130    7.2370    1.9810 hn        1 MOL      0.259642
     40 H20       -12.9280    5.8480    2.3710 hn        1 MOL      0.259642
     41 N4         -6.1580    1.2210    0.0120 n         1 MOL     -0.417035
     42 C13        -4.7330    1.5590    0.0350 c3        1 MOL     -0.002760
     43 C14        -4.3360    2.1700   -1.3130 c         1 MOL      0.665692
     44 O6         -4.7050    1.6930   -2.3770 o         1 MOL     -0.500410
     45 C15        -3.8210    0.3450    0.4210 c3        1 MOL     -0.190226
     46 C16        -2.3890    0.7920    0.6210 c         1 MOL      0.655705
     47 O7         -1.5460    0.6280   -0.3550 o         1 MOL     -0.748205
     48 O8         -1.9240    1.1490    1.7200 o         1 MOL     -0.748205
     49 H21        -6.4540    0.3430    0.4250 hn        1 MOL      0.223664
     50 H22        -4.5180    2.3260    0.7870 h1        1 MOL      0.003698
     51 H23        -3.8640   -0.3310   -0.4380 hc        1 MOL      0.125002
     52 H24        -4.2150   -0.1050    1.3190 hc        1 MOL      0.125002
     53 N5         -3.6290    3.3070   -1.1820 n         1 MOL     -0.395334
     54 C17        -2.9570    3.9930   -2.2780 c3        1 MOL     -0.203984
     55 C18        -2.1780    3.1460   -3.3330 c         1 MOL      0.540792
     56 O9         -2.1880    3.4530   -4.4850 o         1 MOL     -0.517673
     57 H25        -3.3550    3.5740   -0.2500 hn        1 MOL      0.278572
     58 H26        -2.3800    4.7680   -1.7750 h1        1 MOL      0.109302
     59 H27        -3.7700    4.4080   -2.8720 h1        1 MOL      0.109302
     60 N6         -1.4450    2.0660   -2.9410 n         1 MOL     -0.396579
     61 C19        -0.6830    1.1550   -3.8610 c3        1 MOL      0.044333
     62 C20        -0.8270   -0.3300   -3.5600 c         1 MOL      0.308684
     63 O10         0.1090   -1.0970   -3.4610 o         1 MOL     -0.324841
     64 C21         0.7620    1.7470   -3.8870 c3        1 MOL     -0.315118
     65 C22         1.5510    1.5560   -2.6350 c         1 MOL      0.641853
     66 N7          2.8350    1.8250   -2.6060 n         1 MOL     -0.688401
     67 O11         1.0120    1.1510   -1.6110 o         1 MOL     -0.708912
     68 H28        -1.6590    1.7210   -2.0170 hn        1 MOL      0.394401
     69 H29        -1.0160    1.3280   -4.8760 h1        1 MOL      0.116695
     70 H30         0.6810    2.7550   -4.2820 hc        1 MOL      0.128762
     71 H31         1.2660    1.0720   -4.5880 hc        1 MOL      0.128762
     72 H32         3.2890    2.0850   -3.4720 hn        1 MOL      0.334669
     73 H33         3.3470    1.6250   -1.7560 hn        1 MOL      0.334669
     74 N8         -2.0980   -0.7390   -3.2750 n         1 MOL     -0.157651
     75 C23        -2.5030   -2.1110   -3.1990 c3        1 MOL     -0.347959
     76 C24        -2.0070   -2.9580   -1.9450 c         1 MOL      0.494752
     77 O12        -2.2770   -4.1590   -1.7930 o         1 MOL     -0.533115
     78 H34        -2.8490   -0.0700   -3.2820 hn        1 MOL      0.198450
     79 H35        -2.0760   -2.6130   -4.0670 h1        1 MOL      0.178635
     80 H36        -3.5910   -2.1300   -3.2590 h1        1 MOL      0.178635
     81 N9         -1.3720   -2.3490   -0.9780 n         1 MOL     -0.181328
     82 C25        -0.9060   -2.9090    0.2310 c3        1 MOL     -0.044998
     83 C26         0.3760   -2.1760    0.6840 c         1 MOL      0.143245
     84 O13         0.4750   -0.9590    0.6060 o         1 MOL     -0.293032
     85 C27        -1.9700   -2.8350    1.3560 c3        1 MOL     -0.140179
     86 C28        -1.3140   -3.1460    2.6980 ca        1 MOL      0.006984
     87 C29        -0.9360   -4.4500    2.9790 ca        1 MOL     -0.125763
     88 C30        -1.1890   -2.1090    3.6760 ca        1 MOL     -0.125763
     89 C31        -0.3920   -4.7870    4.2190 ca        1 MOL     -0.280783
     90 C32        -0.7300   -2.4290    4.9680 ca        1 MOL     -0.280783
     91 C33        -0.2870   -3.7500    5.2560 ca        1 MOL      0.340920
     92 O14         0.1440   -4.0890    6.4930 oh        1 MOL     -0.490018
     93 H37        -1.3670   -1.3380   -1.0110 hn        1 MOL      0.199521
     94 H38        -0.5780   -3.9410    0.1720 h1        1 MOL      0.057968
     95 H39        -2.7180   -3.5910    1.1050 hc        1 MOL      0.116899
     96 H40        -2.4900   -1.8800    1.4310 hc        1 MOL      0.116899
     97 H41        -0.9820   -5.2330    2.2350 ha        1 MOL      0.153544
     98 H42        -1.5110   -1.0990    3.4800 ha        1 MOL      0.153544
     99 H43         0.0030   -5.7830    4.3340 ha        1 MOL      0.143520
    100 H44        -0.7650   -1.6750    5.7420 ha        1 MOL      0.143520
    101 H45        -0.1280   -3.4330    7.1430 ho        1 MOL      0.374204
    102 N10         1.3340   -2.9360    1.0880 n         1 MOL     -0.016698
    103 C34         2.7180   -2.4930    1.2690 c3        1 MOL     -0.056675
    104 C35         3.3380   -2.1010   -0.0380 c         1 MOL      0.262529
    105 O15         4.0540   -1.0960   -0.0230 o         1 MOL     -0.430987
    106 C36         3.4340   -3.6120    2.0210 c3        1 MOL     -0.026768
    107 C37         2.9940   -3.7790    3.4960 c3        1 MOL     -0.007854
    108 C38         4.9780   -3.5590    1.9840 c3        1 MOL     -0.372027
    109 C39         3.2090   -2.4590    4.2780 c3        1 MOL      0.112498
    110 H46         1.2250   -3.9320    1.0960 hn        1 MOL      0.189045
    111 H47         2.7000   -1.6700    1.9690 h1        1 MOL      0.081740
    112 H48         3.1970   -4.5430    1.5080 hc        1 MOL      0.019547
    113 H49         3.5880   -4.5500    3.9720 hc        1 MOL      0.038120
    114 H50         1.9700   -4.1460    3.5440 hc        1 MOL      0.038120
    115 H51         5.3720   -3.4310    0.9760 hc        1 MOL      0.121759
    116 H52         5.4370   -2.8320    2.6390 hc        1 MOL      0.121759
    117 H53         5.4510   -4.4220    2.4420 hc        1 MOL      0.121759
    118 H54         2.4180   -1.7170    4.0900 hc        1 MOL     -0.038331
    119 H55         3.1720   -2.6470    5.3530 hc        1 MOL     -0.038331
    120 H56         4.0900   -1.8660    4.0700 hc        1 MOL     -0.038331
    121 N11         3.0480   -2.7780   -1.1680 n         1 MOL      0.044768
    122 C40         3.1870   -2.3390   -2.5350 c3        1 MOL     -0.453386
    123 C41         4.6250   -2.3590   -3.0290 c         1 MOL      0.467137
    124 O16         4.9160   -1.7210   -4.0190 o         1 MOL     -0.455719
    125 C42         2.4640   -3.2900   -3.5440 c3        1 MOL      0.220457
    126 O17         1.1110   -3.4920   -3.1220 oh        1 MOL     -0.571640
    127 H57         2.5230   -3.6360   -1.0380 hn        1 MOL      0.195498
    128 H58         2.8740   -1.3060   -2.6930 h1        1 MOL      0.216107
    129 H59         3.0570   -4.2040   -3.5500 h1        1 MOL      0.060463
    130 H60         2.4580   -2.8830   -4.5490 h1        1 MOL      0.060463
    131 H61         0.6900   -2.6320   -3.1300 ho        1 MOL      0.312422
    132 N12         5.4790   -3.0290   -2.1850 n         1 MOL     -0.346120
    133 C43         6.9290   -3.0160   -2.2240 c3        1 MOL      0.250605
    134 C44         7.4860   -1.5330   -2.3120 c         1 MOL      0.389015
    135 O18         8.2450   -1.2480   -3.2330 o         1 MOL     -0.475146
    136 C45         7.3790   -3.9660   -3.3480 c3        1 MOL     -0.374752
    137 H62         5.1330   -3.3930   -1.3160 hn        1 MOL      0.172633
    138 H63         7.2450   -3.4270   -1.2670 h1        1 MOL      0.029187
    139 H64         7.1100   -3.5960   -4.3390 hc        1 MOL      0.106589
    140 H65         8.4660   -3.9720   -3.3040 hc        1 MOL      0.106589
    141 H66         7.0430   -4.9830   -3.1230 hc        1 MOL      0.106589
    142 N13         6.9740   -0.5970   -1.4890 n         1 MOL     -0.370522
    143 C46         7.3540    0.7920   -1.4390 c3        1 MOL      0.298738
    144 C47         8.1580    1.2410   -0.1930 c         1 MOL      0.430862
    145 O19         7.9330    0.6520    0.8950 o         1 MOL     -0.506681
    146 C48         6.1400    1.6650   -1.7760 c3        1 MOL     -0.114814
    147 H67         6.3260   -0.9630   -0.8100 hn        1 MOL      0.141260
    148 H68         8.0840    0.9000   -2.2450 h1        1 MOL     -0.034055
    149 H69         5.4200    1.4390   -0.9840 hc        1 MOL      0.030527
    150 H70         6.4000    2.7190   -1.8370 hc        1 MOL      0.030527
    151 H71         5.6560    1.3580   -2.7010 hc        1 MOL      0.030527
    152 N14         9.0110    2.2760   -0.2910 n         1 MOL     -0.410394
    153 C49         9.7280    2.8980    0.7850 c3        1 MOL      0.123826
    154 C50        10.5910    1.8990    1.6060 c         1 MOL      0.384074
    155 O20        10.6020    2.0780    2.8130 o         1 MOL     -0.490452
    156 C51         8.9020    3.8910    1.6640 c3        1 MOL      0.360037
    157 C52         7.9750    4.7280    0.8320 c3        1 MOL     -0.163370
    158 C53         7.2850    5.7580    1.7120 c         1 MOL      0.637051
    159 O21         8.0030    6.5210    2.3930 o         1 MOL     -0.680221
    160 O22         6.0280    5.8130    1.7460 o         1 MOL     -0.680221
    161 H72         9.0460    2.7410   -1.1850 hn        1 MOL      0.266835
    162 H73        10.4180    3.5050    0.1990 h1        1 MOL     -0.003795
    163 H74         9.6440    4.4830    2.1880 hc        1 MOL     -0.065851
    164 H75         8.3300    3.3080    2.3840 hc        1 MOL     -0.065851
    165 H76         7.1760    4.1370    0.4000 hc        1 MOL     -0.032580
    166 H77         8.5040    5.1770   -0.0050 hc        1 MOL     -0.032580
    167 N15        11.2220    0.9490    0.9690 n         1 MOL     -0.315172
    168 C54        11.5450   -0.3030    1.5810 c3        1 MOL     -0.040222
    169 H78        11.1290   -0.3320    2.5890 h1        1 MOL      0.059451
    170 H79        11.1220   -1.1160    0.9920 h1        1 MOL      0.059451
    171 H80        12.6270   -0.4150    1.6330 h1        1 MOL      0.059451
    172 H81        11.1580    0.9460   -0.0360 hn        1 MOL      0.226808
    173 Ca1         0.5350    1.6830    0.8580 Ca        1 MOL      1.741918
    174 O23         2.2000    3.5540    0.1110 oh        1 MOL     -0.856239
    175 H82         3.0660    3.7490   -0.2470 ho        1 MOL      0.420151
    176 H83         1.9560    4.3480    0.5810 ho        1 MOL      0.420151
    177 O24         1.2350    0.3600    3.1520 oh        1 MOL     -0.856239
    178 H84         2.0320   -0.1380    3.0090 ho        1 MOL      0.420151
    179 H85         1.3780    0.8080    3.9870 ho        1 MOL      0.420151
    180 O25         1.1380    3.1300    3.0940 oh        1 MOL     -0.856239
    181 H86         1.0480    4.0180    3.4420 ho        1 MOL      0.420151
    182 H87         1.2370    2.5770    3.8680 ho        1 MOL      0.420151
    183 O26        -0.9270    3.7490    0.1150 oh        1 MOL     -0.856239
    184 H88        -0.4740    4.3970   -0.4150 ho        1 MOL      0.420151
    185 H89        -1.1800    4.2250    0.9110 ho        1 MOL      0.420151
    186 O27         3.2560    0.9680    1.2320 oh        1 MOL     -0.856239
    187 H90         3.7120    0.3660    0.6520 ho        1 MOL      0.420151
    188 H91         3.9030    1.6420    1.4480 ho        1 MOL      0.420151
@<TRIPOS>BOND
     1    1    2 1   
     2    1    4 1   
     3    1    5 1   
     4    1    6 1   
     5    2    3 2   
     6    2    7 1   
     7    7    8 1   
     8    7   15 1   
     9    8    9 1   
    10    8   11 1   
    11    8   16 1   
    12    9   10 2   
    13    9   19 1   
    14   11   12 1   
    15   11   17 1   
    16   11   18 1   
    17   12   13 1   
    18   12   14 1   
    19   19   20 1   
    20   19   28 1   
    21   20   21 1   
    22   20   23 1   
    23   20   29 1   
    24   21   22 2   
    25   21   41 1   
    26   23   24 1   
    27   23   30 1   
    28   23   31 1   
    29   24   25 1   
    30   24   32 1   
    31   24   33 1   
    32   25   26 1   
    33   25   34 1   
    34   25   35 1   
    35   26   27 1   
    36   26   36 1   
    37   26   37 1   
    38   27   38 1   
    39   27   39 1   
    40   27   40 1   
    41   41   42 1   
    42   41   49 1   
    43   42   43 1   
    44   42   45 1   
    45   42   50 1   
    46   43   44 2   
    47   43   53 1   
    48   45   46 1   
    49   45   51 1   
    50   45   52 1   
    51   46   47 1   
    52   46   48 1   
    53   53   54 1   
    54   53   57 1   
    55   54   55 1   
    56   54   58 1   
    57   54   59 1   
    58   55   56 2   
    59   55   60 1   
    60   60   61 1   
    61   60   68 1   
    62   61   62 1   
    63   61   64 1   
    64   61   69 1   
    65   62   63 2   
    66   62   74 1   
    67   64   65 1   
    68   64   70 1   
    69   64   71 1   
    70   65   66 1   
    71   65   67 2   
    72   66   72 1   
    73   66   73 1   
    74   74   75 1   
    75   74   78 1   
    76   75   76 1   
    77   75   79 1   
    78   75   80 1   
    79   76   77 2   
    80   76   81 1   
    81   81   82 1   
    82   81   93 1   
    83   82   83 1   
    84   82   85 1   
    85   82   94 1   
    86   83   84 2   
    87   83  102 1   
    88   85   86 1   
    89   85   95 1   
    90   85   96 1   
    91   86   87 ar  
    92   86   88 ar  
    93   87   89 ar  
    94   87   97 1   
    95   88   90 ar  
    96   88   98 1   
    97   89   91 ar  
    98   89   99 1   
    99   90   91 ar  
   100   90  100 1   
   101   91   92 1   
   102   92  101 1   
   103  102  103 1   
   104  102  110 1   
   105  103  104 1   
   106  103  106 1   
   107  103  111 1   
   108  104  105 2   
   109  104  121 1   
   110  106  107 1   
   111  106  108 1   
   112  106  112 1   
   113  107  109 1   
   114  107  113 1   
   115  107  114 1   
   116  108  115 1   
   117  108  116 1   
   118  108  117 1   
   119  109  118 1   
   120  109  119 1   
   121  109  120 1   
   122  121  122 1   
   123  121  127 1   
   124  122  123 1   
   125  122  125 1   
   126  122  128 1   
   127  123  124 2   
   128  123  132 1   
   129  125  126 1   
   130  125  129 1   
   131  125  130 1   
   132  126  131 1   
   133  132  133 1   
   134  132  137 1   
   135  133  134 1   
   136  133  136 1   
   137  133  138 1   
   138  134  135 2   
   139  134  142 1   
   140  136  139 1   
   141  136  140 1   
   142  136  141 1   
   143  142  143 1   
   144  142  147 1   
   145  143  144 1   
   146  143  146 1   
   147  143  148 1   
   148  144  145 2   
   149  144  152 1   
   150  146  149 1   
   151  146  150 1   
   152  146  151 1   
   153  152  153 1   
   154  152  161 1   
   155  153  154 1   
   156  153  156 1   
   157  153  162 1   
   158  154  155 2   
   159  154  167 1   
   160  156  157 1   
   161  156  163 1   
   162  156  164 1   
   163  157  158 1   
   164  157  165 1   
   165  157  166 1   
   166  158  159 1   
   167  158  160 1   
   168  167  168 1   
   169  167  172 1   
   170  168  169 1   
   171  168  170 1   
   172  168  171 1   
   173  174  175 1   
   174  174  176 1   
   175  177  178 1   
   176  177  179 1   
   177  180  181 1   
   178  180  182 1   
   179  183  184 1   
   180  183  185 1   
   181  186  187 1   
   182  186  188 1   
@<TRIPOS>SUBSTRUCTURE
     1 MOL         1 TEMP              0 ****  ****    0 ROOT
