@<TRIPOS>MOLECULE
MOL
  178   175     1     0     0
SMALL
resp


@<TRIPOS>ATOM
      1 C1          2.5040   -1.5470    4.5130 c3        1 MOL     -0.224112
      2 C2          3.5840   -0.6560    3.8890 c         1 MOL      0.626565
      3 O1          3.4250    0.5790    3.7460 o         1 MOL     -0.526302
      4 H1          2.3360   -1.2440    5.5460 hc        1 MOL      0.056079
      5 H2          1.5770   -1.4420    3.9490 hc        1 MOL      0.056079
      6 H3          2.8310   -2.5860    4.4870 hc        1 MOL      0.056079
      7 N1          4.7400   -1.2660    3.5320 n         1 MOL     -0.608109
      8 C3          5.9380   -0.6060    3.1120 c3        1 MOL      0.270231
      9 C4          6.6910   -1.3160    1.9900 c         1 MOL      0.297444
     10 O2          7.1800   -0.6320    1.1550 o         1 MOL     -0.466356
     11 C5          6.9180   -0.5210    4.3030 c3        1 MOL     -0.116420
     12 C6          8.0040    0.5480    4.0640 c         1 MOL      0.725145
     13 O3          9.2330    0.1940    4.2590 o         1 MOL     -0.730385
     14 O4          7.6730    1.7400    3.9950 o         1 MOL     -0.730385
     15 H4          4.6510   -2.2670    3.6140 hn        1 MOL      0.296783
     16 H5          5.6370    0.4080    2.8370 h1        1 MOL      0.043005
     17 H6          7.3540   -1.5150    4.4550 hc        1 MOL     -0.022876
     18 H7          6.3910   -0.1520    5.1790 hc        1 MOL     -0.022876
     19 N2          6.6800   -2.6180    2.0230 n         1 MOL     -0.205537
     20 C7          7.3370   -3.4010    1.0510 c3        1 MOL      0.203851
     21 C8          6.9500   -3.0730   -0.4100 c         1 MOL      0.424990
     22 O5          7.7500   -3.1020   -1.3600 o         1 MOL     -0.534976
     23 C9          8.8700   -3.4590    1.3450 c3        1 MOL     -0.489171
     24 H8          6.1190   -3.0160    2.7560 hn        1 MOL      0.204065
     25 H9          6.9800   -4.4170    1.2250 h1        1 MOL      0.027492
     26 H10         9.2800   -2.4490    1.3540 hc        1 MOL      0.130302
     27 H11         9.0380   -3.9540    2.2980 hc        1 MOL      0.130302
     28 H12         9.3200   -4.0550    0.5540 hc        1 MOL      0.130302
     29 N3          5.6720   -2.7820   -0.5950 n         1 MOL     -0.215374
     30 C10         4.9000   -2.5460   -1.8550 c3        1 MOL      0.034290
     31 C11         5.3970   -1.3340   -2.5750 c         1 MOL      0.371681
     32 O6          5.1530   -1.1550   -3.7790 o         1 MOL     -0.565394
     33 C12         4.7230   -3.9210   -2.5700 c3        1 MOL     -0.117837
     34 C13         3.9520   -4.8670   -1.6810 c         1 MOL      0.606180
     35 O7          4.3970   -6.0490   -1.4630 o         1 MOL     -0.679345
     36 O8          2.7930   -4.4980   -1.2850 o         1 MOL     -0.679345
     37 H13         5.1630   -2.8460    0.2690 hn        1 MOL      0.158522
     38 H14         3.8970   -2.1980   -1.5990 h1        1 MOL      0.008082
     39 H15         5.7180   -4.3570   -2.6900 hc        1 MOL      0.038691
     40 H16         4.2080   -3.7820   -3.5150 hc        1 MOL      0.038691
     41 N4          6.0570   -0.4310   -1.8790 n         1 MOL      0.091278
     42 C14         6.4210    0.8600   -2.3560 c3        1 MOL     -0.306044
     43 C15         5.2590    1.7570   -2.7220 c         1 MOL      0.666769
     44 O9          5.4470    2.6800   -3.5130 o         1 MOL     -0.584509
     45 H17         6.3070   -0.7640   -0.9570 hn        1 MOL      0.069324
     46 H18         7.0580    0.5600   -3.1780 h1        1 MOL      0.124948
     47 H19         7.0890    1.3990   -1.6970 h1        1 MOL      0.124948
     48 N5          4.0220    1.5460   -2.2390 n         1 MOL     -0.422475
     49 C16         2.7790    2.0440   -2.7950 c3        1 MOL      0.009870
     50 C17         2.5390    3.5020   -2.3610 c         1 MOL      0.618857
     51 O10         2.6670    3.8930   -1.2410 o         1 MOL     -0.529005
     52 C18         1.6160    1.0870   -2.4200 c3        1 MOL     -0.407255
     53 C19         1.7400   -0.2560   -3.1710 c         1 MOL      0.740347
     54 N6          1.6550   -0.2190   -4.4870 n         1 MOL     -0.715036
     55 O11         1.9220   -1.3400   -2.6250 o         1 MOL     -0.563843
     56 H20         3.9400    0.8740   -1.4870 hn        1 MOL      0.244913
     57 H21         2.9370    2.0950   -3.8740 h1        1 MOL      0.039250
     58 H22         0.7710    1.6990   -2.7200 hc        1 MOL      0.173590
     59 H23         1.5550    0.9110   -1.3420 hc        1 MOL      0.173590
     60 H24         1.3470    0.6180   -4.9620 hn        1 MOL      0.328275
     61 H25         1.8410   -1.0270   -5.0750 hn        1 MOL      0.328275
     62 N7          2.1650    4.3860   -3.2900 n         1 MOL     -0.399428
     63 C20         2.0520    5.8010   -2.9600 c3        1 MOL     -0.266734
     64 C21         0.7670    6.1520   -2.2110 c         1 MOL      0.647361
     65 O12        -0.3210    5.6390   -2.5170 o         1 MOL     -0.518010
     66 H26         2.0990    4.0600   -4.2410 hn        1 MOL      0.276828
     67 H27         2.1440    6.4610   -3.8330 h1        1 MOL      0.144089
     68 H28         2.8860    5.9650   -2.2850 h1        1 MOL      0.144089
     69 N8          0.7910    7.1830   -1.3070 n         1 MOL     -0.530388
     70 C22        -0.3840    7.7290   -0.6060 c3        1 MOL     -0.253280
     71 C23        -1.3310    6.8340    0.2330 c         1 MOL      0.460420
     72 O13        -2.3970    7.3440    0.6400 o         1 MOL     -0.583993
     73 C24        -0.0820    9.0430    0.0980 c3        1 MOL      0.453251
     74 C25         0.7200    8.8160    1.3410 c3        1 MOL     -0.266203
     75 O14         0.5830    9.9770   -0.7520 oh        1 MOL     -0.614755
     76 H29         1.7180    7.5370   -1.1420 hn        1 MOL      0.277943
     77 H30        -1.0680    8.0510   -1.3910 h1        1 MOL      0.156194
     78 H31        -1.0440    9.5140    0.3000 h1        1 MOL      0.041776
     79 H32         1.3300    9.4530   -1.0420 ho        1 MOL      0.354993
     80 H33         0.0310    8.5490    2.1430 hc        1 MOL      0.062421
     81 H34         1.4120    7.9700    1.3100 hc        1 MOL      0.062421
     82 H35         1.1870    9.6950    1.7700 hc        1 MOL      0.062421
     83 N9         -0.9890    5.5910    0.4200 n         1 MOL     -0.082772
     84 C26        -1.7000    4.5130    1.1360 c3        1 MOL     -0.044932
     85 C27        -1.7590    3.2510    0.2450 c         1 MOL      0.431496
     86 O15        -1.1660    3.2480   -0.8670 o         1 MOL     -0.453760
     87 C28        -1.1260    4.2640    2.5550 c3        1 MOL     -0.012899
     88 C29         0.2510    3.6160    2.5590 c3        1 MOL     -0.216592
     89 C30        -1.1390    5.6190    3.2840 c3        1 MOL     -0.097314
     90 C31         0.5850    3.2550    4.0090 c3        1 MOL     -0.129839
     91 H36        -0.1170    5.3780   -0.0440 hn        1 MOL      0.198423
     92 H37        -2.7250    4.8680    1.2530 h1        1 MOL      0.077004
     93 H38        -1.8130    3.5880    3.0630 hc        1 MOL      0.023598
     94 H39         1.0010    4.3010    2.1450 hc        1 MOL      0.131452
     95 H40         0.1840    2.7100    1.9510 hc        1 MOL      0.131452
     96 H41        -2.0250    6.2520    3.2520 hc        1 MOL      0.033821
     97 H42        -1.1360    5.5020    4.3700 hc        1 MOL      0.033821
     98 H43        -0.3030    6.2300    2.9350 hc        1 MOL      0.033821
     99 H44         1.3460    2.4680    4.0020 hc        1 MOL      0.042889
    100 H45         0.7590    4.1200    4.6500 hc        1 MOL      0.042889
    101 H46        -0.2450    2.7350    4.4870 hc        1 MOL      0.042889
    102 N10        -2.4860    2.1790    0.6530 n         1 MOL     -0.551719
    103 C32        -2.4740    0.8890    0.0060 c3        1 MOL      0.249965
    104 C33        -3.7890    0.1050   -0.1430 c         1 MOL      0.516837
    105 O16        -3.7590   -1.0860   -0.2520 o         1 MOL     -0.429178
    106 C34        -1.3270    0.0230    0.5700 c3        1 MOL     -0.072818
    107 C35        -0.7050   -0.9710   -0.3630 c         1 MOL      0.519814
    108 O17         0.1030   -1.8510    0.0170 o         1 MOL     -0.705080
    109 O18        -1.0830   -0.9990   -1.5670 o         1 MOL     -0.705080
    110 H47        -3.0650    2.3620    1.4690 hn        1 MOL      0.281194
    111 H48        -2.2670    1.0610   -1.0450 h1        1 MOL      0.041384
    112 H49        -1.6310   -0.4400    1.5080 hc        1 MOL      0.046452
    113 H50        -0.4910    0.7050    0.7830 hc        1 MOL      0.046452
    114 N11        -4.9290    0.8440   -0.0470 n         1 MOL     -0.621574
    115 C36        -6.2790    0.2800   -0.2150 c3        1 MOL      0.475112
    116 C37        -6.5230   -0.8520    0.8690 c         1 MOL      0.212241
    117 O19        -6.4100   -0.5830    2.0720 o         1 MOL     -0.488673
    118 C38        -7.3780    1.3670   -0.2240 c3        1 MOL     -0.455068
    119 C39        -8.6330    1.0500   -0.9810 ca        1 MOL      0.166460
    120 C40        -8.5910    1.0520   -2.3940 ca        1 MOL     -0.227251
    121 C41        -9.7160    0.3180   -0.3340 ca        1 MOL     -0.227251
    122 C42        -9.6120    0.4600   -3.1640 ca        1 MOL     -0.065897
    123 C43       -10.7560   -0.2140   -1.1140 ca        1 MOL     -0.065897
    124 C44       -10.7670   -0.0900   -2.5290 ca        1 MOL     -0.162709
    125 H51        -4.7990    1.8420   -0.0820 hn        1 MOL      0.290291
    126 H52        -6.2950   -0.1570   -1.2110 h1        1 MOL     -0.036923
    127 H53        -6.9990    2.2170   -0.7860 hc        1 MOL      0.148955
    128 H54        -7.6030    1.5340    0.8310 hc        1 MOL      0.148955
    129 H55        -7.7290    1.4540   -2.9060 ha        1 MOL      0.149202
    130 H56        -9.6440    0.1320    0.7310 ha        1 MOL      0.149202
    131 H57        -9.5770    0.5390   -4.2410 ha        1 MOL      0.104204
    132 H58       -11.5630   -0.7490   -0.6200 ha        1 MOL      0.104204
    133 H59       -11.6250   -0.3860   -3.1060 ha        1 MOL      0.120551
    134 N12        -7.0330   -1.9980    0.4380 n         1 MOL     -0.023591
    135 C45        -7.2070   -3.2040    1.2350 c3        1 MOL      0.035951
    136 C46        -6.0570   -3.5810    2.1360 c         1 MOL      0.237940
    137 O20        -6.3040   -4.4450    3.0120 o         1 MOL     -0.529776
    138 C47        -7.6380   -4.3900    0.3850 c3        1 MOL     -0.015277
    139 C48        -8.1000   -3.5970   -0.8770 c3        1 MOL     -0.087255
    140 C49        -7.3210   -2.3750   -0.9070 c3        1 MOL      0.124689
    141 H60        -8.0750   -2.9290    1.8340 h1        1 MOL      0.069068
    142 H61        -6.8130   -5.0410    0.0820 hc        1 MOL      0.053245
    143 H62        -8.4210   -5.0430    0.7630 hc        1 MOL      0.053245
    144 H63        -7.9440   -4.2000   -1.7690 hc        1 MOL      0.008805
    145 H64        -9.1520   -3.3630   -0.7100 hc        1 MOL      0.008805
    146 H65        -6.4480   -2.5610   -1.5240 h1        1 MOL      0.018679
    147 H66        -7.8800   -1.6110   -1.4500 h1        1 MOL      0.018679
    148 N13        -4.8330   -3.0160    2.0240 n         1 MOL      0.063184
    149 C50        -3.6560   -3.3450    2.7870 c3        1 MOL     -0.168793
    150 C51        -3.3800   -2.3650    3.9290 c         1 MOL      0.461628
    151 O21        -2.7070   -2.7520    4.8890 o         1 MOL     -0.530747
    152 C52        -2.4800   -3.3660    1.8520 c3        1 MOL      0.174918
    153 C53        -2.4700   -4.6490    1.0770 c3        1 MOL     -0.106185
    154 C54        -1.3730   -4.7100    0.0600 c         1 MOL      0.806731
    155 O22        -0.1760   -4.7340    0.4410 o         1 MOL     -0.790439
    156 O23        -1.6940   -4.5530   -1.1350 o         1 MOL     -0.790439
    157 H67        -4.7430   -2.3750    1.2430 hn        1 MOL     -0.015770
    158 H68        -3.8340   -4.3020    3.2840 h1        1 MOL      0.118769
    159 H69        -1.5680   -3.3210    2.4520 hc        1 MOL      0.028808
    160 H70        -2.5100   -2.5060    1.1890 hc        1 MOL      0.028808
    161 H71        -3.4240   -4.8410    0.5820 hc        1 MOL     -0.017948
    162 H72        -2.3830   -5.4730    1.7810 hc        1 MOL     -0.017948
    163 N14        -3.9540   -1.1380    3.8280 n         1 MOL     -0.214681
    164 C55        -3.9510   -0.1420    4.9350 c3        1 MOL     -0.275943
    165 H73        -3.8650   -0.6610    5.8890 h1        1 MOL      0.109667
    166 H74        -3.1050    0.5350    4.8130 h1        1 MOL      0.109667
    167 H75        -4.8800    0.4290    4.9150 h1        1 MOL      0.109667
    168 H76        -4.4390   -0.7780    3.0190 hn        1 MOL      0.220306
    169 Ca1         0.5130   -3.6010   -1.8480 Ca        1 MOL      1.720929
    170 O24        -1.2630   -3.1280   -3.7830 oh        1 MOL     -0.828468
    171 H77        -1.4500   -3.4780   -4.6590 ho        1 MOL      0.404778
    172 H78        -2.0720   -3.2840   -3.2910 ho        1 MOL      0.404778
    173 O25         1.6410   -3.7840   -4.4980 oh        1 MOL     -0.828468
    174 H79         1.1170   -3.3110   -5.1480 ho        1 MOL      0.404778
    175 H80         2.5100   -3.8730   -4.9080 ho        1 MOL      0.404778
    176 O26         0.1740   -6.2960   -2.7450 oh        1 MOL     -0.828468
    177 H81         0.8530   -6.3630   -3.4170 ho        1 MOL      0.404778
    178 H82         0.0250   -7.2000   -2.4600 ho        1 MOL      0.404778
@<TRIPOS>BOND
     1    1    2 1   
     2    1    4 1   
     3    1    5 1   
     4    1    6 1   
     5    2    3 2   
     6    2    7 1   
     7    7    8 1   
     8    7   15 1   
     9    8    9 1   
    10    8   11 1   
    11    8   16 1   
    12    9   10 2   
    13    9   19 1   
    14   11   12 1   
    15   11   17 1   
    16   11   18 1   
    17   12   13 1   
    18   12   14 1   
    19   19   20 1   
    20   19   24 1   
    21   20   21 1   
    22   20   23 1   
    23   20   25 1   
    24   21   22 2   
    25   21   29 1   
    26   23   26 1   
    27   23   27 1   
    28   23   28 1   
    29   29   30 1   
    30   29   37 1   
    31   30   31 1   
    32   30   33 1   
    33   30   38 1   
    34   31   32 2   
    35   31   41 1   
    36   33   34 1   
    37   33   39 1   
    38   33   40 1   
    39   34   35 1   
    40   34   36 1   
    41   41   42 1   
    42   41   45 1   
    43   42   43 1   
    44   42   46 1   
    45   42   47 1   
    46   43   44 2   
    47   43   48 1   
    48   48   49 1   
    49   48   56 1   
    50   49   50 1   
    51   49   52 1   
    52   49   57 1   
    53   50   51 2   
    54   50   62 1   
    55   52   53 1   
    56   52   58 1   
    57   52   59 1   
    58   53   54 1   
    59   53   55 2   
    60   54   60 1   
    61   54   61 1   
    62   62   63 1   
    63   62   66 1   
    64   63   64 1   
    65   63   67 1   
    66   63   68 1   
    67   64   65 2   
    68   64   69 1   
    69   69   70 1   
    70   69   76 1   
    71   70   71 1   
    72   70   73 1   
    73   70   77 1   
    74   71   72 2   
    75   71   83 1   
    76   73   74 1   
    77   73   75 1   
    78   73   78 1   
    79   74   80 1   
    80   74   81 1   
    81   74   82 1   
    82   75   79 1   
    83   83   84 1   
    84   83   91 1   
    85   84   85 1   
    86   84   87 1   
    87   84   92 1   
    88   85   86 2   
    89   85  102 1   
    90   87   88 1   
    91   87   89 1   
    92   87   93 1   
    93   88   90 1   
    94   88   94 1   
    95   88   95 1   
    96   89   96 1   
    97   89   97 1   
    98   89   98 1   
    99   90   99 1   
   100   90  100 1   
   101   90  101 1   
   102  102  103 1   
   103  102  110 1   
   104  103  104 1   
   105  103  106 1   
   106  103  111 1   
   107  104  105 2   
   108  104  114 1   
   109  106  107 1   
   110  106  112 1   
   111  106  113 1   
   112  107  108 1   
   113  107  109 1   
   114  114  115 1   
   115  114  125 1   
   116  115  116 1   
   117  115  118 1   
   118  115  126 1   
   119  116  117 2   
   120  116  134 1   
   121  118  119 1   
   122  118  127 1   
   123  118  128 1   
   124  119  120 ar  
   125  119  121 ar  
   126  120  122 ar  
   127  120  129 1   
   128  121  123 ar  
   129  121  130 1   
   130  122  124 ar  
   131  122  131 1   
   132  123  124 ar  
   133  123  132 1   
   134  124  133 1   
   135  134  135 1   
   136  134  140 1   
   137  135  136 1   
   138  135  138 1   
   139  135  141 1   
   140  136  137 2   
   141  136  148 1   
   142  138  139 1   
   143  138  142 1   
   144  138  143 1   
   145  139  140 1   
   146  139  144 1   
   147  139  145 1   
   148  140  146 1   
   149  140  147 1   
   150  148  149 1   
   151  148  157 1   
   152  149  150 1   
   153  149  152 1   
   154  149  158 1   
   155  150  151 2   
   156  150  163 1   
   157  152  153 1   
   158  152  159 1   
   159  152  160 1   
   160  153  154 1   
   161  153  161 1   
   162  153  162 1   
   163  154  155 1   
   164  154  156 1   
   165  163  164 1   
   166  163  168 1   
   167  164  165 1   
   168  164  166 1   
   169  164  167 1   
   170  170  171 1   
   171  170  172 1   
   172  173  174 1   
   173  173  175 1   
   174  176  177 1   
   175  176  178 1   
@<TRIPOS>SUBSTRUCTURE
     1 MOL         1 TEMP              0 ****  ****    0 ROOT
