@<TRIPOS>MOLECULE
MOL
  181   177     1     0     0
SMALL
resp


@<TRIPOS>ATOM
      1 C1         -2.7340    0.9570    3.9430 c3        1 MOL     -0.179681
      2 C2         -3.4600   -0.3430    3.5640 c         1 MOL      0.510187
      3 O1         -2.9800   -1.1570    2.7360 o         1 MOL     -0.523570
      4 H1         -2.9360    1.1940    4.9880 hc        1 MOL      0.038722
      5 H2         -1.6610    0.8300    3.8010 hc        1 MOL      0.038722
      6 H3         -3.0910    1.7710    3.3120 hc        1 MOL      0.038722
      7 N1         -4.6660   -0.4040    4.1450 n         1 MOL     -0.468581
      8 C3         -5.7380   -1.3610    3.7580 c3        1 MOL      0.195673
      9 C4         -6.1080   -1.1450    2.3120 c         1 MOL      0.411488
     10 O2         -6.1650   -2.0280    1.4260 o         1 MOL     -0.537912
     11 C5         -6.9370   -1.2920    4.7620 c3        1 MOL     -0.260589
     12 C6         -8.1200   -2.3550    4.4490 c         1 MOL      0.719514
     13 O3         -8.5890   -2.9610    5.4460 o         1 MOL     -0.700730
     14 O4         -8.6180   -2.3650    3.2990 o         1 MOL     -0.700730
     15 H4         -4.8870    0.2560    4.8840 hn        1 MOL      0.273370
     16 H5         -5.3780   -2.3850    3.8700 h1        1 MOL      0.064857
     17 H6         -7.3480   -0.2860    4.7660 hc        1 MOL      0.018609
     18 H7         -6.3880   -1.4820    5.6900 hc        1 MOL      0.018609
     19 N2         -6.2580    0.1470    1.9280 n         1 MOL     -0.350784
     20 C7         -6.5060    0.6020    0.5620 c3        1 MOL      0.502665
     21 C8         -5.4980    0.1550   -0.5740 c         1 MOL      0.268682
     22 O5         -4.4080    0.7530   -0.5730 o         1 MOL     -0.482789
     23 C9         -7.9760    0.3000    0.1530 c3        1 MOL     -0.492512
     24 H8         -6.3070    0.9030    2.6000 hn        1 MOL      0.192914
     25 H9         -6.4560    1.6830    0.6910 h1        1 MOL     -0.072455
     26 H10        -8.1690   -0.7730    0.2830 hc        1 MOL      0.118919
     27 H11        -8.7340    0.8510    0.7090 hc        1 MOL      0.118919
     28 H12        -8.1490    0.6930   -0.8480 hc        1 MOL      0.118919
     29 N3         -5.7130   -0.8590   -1.4260 n         1 MOL     -0.359730
     30 C10        -4.7870   -1.4030   -2.4680 c3        1 MOL      0.082530
     31 C11        -4.7280   -2.9030   -2.3290 c         1 MOL      0.622119
     32 O6         -4.9420   -3.6780   -3.2760 o         1 MOL     -0.556948
     33 C12        -5.2280   -0.8220   -3.8240 c3        1 MOL     -0.272004
     34 C13        -5.3250    0.6880   -3.7640 c         1 MOL      0.715639
     35 O7         -4.3590    1.4040   -3.3850 o         1 MOL     -0.702014
     36 O8         -6.3400    1.0910   -4.4110 o         1 MOL     -0.702014
     37 H13        -6.5060   -1.4490   -1.2300 hn        1 MOL      0.238515
     38 H14        -3.8080   -1.0030   -2.2100 h1        1 MOL      0.002592
     39 H15        -6.2320   -1.1690   -4.0570 hc        1 MOL      0.075711
     40 H16        -4.4940   -1.1200   -4.5730 hc        1 MOL      0.075711
     41 N4         -4.4080   -3.3850   -1.0840 n         1 MOL     -0.336324
     42 C14        -4.1300   -4.8190   -0.8420 c3        1 MOL     -0.302673
     43 C15        -2.7870   -5.3970   -1.3530 c         1 MOL      0.641401
     44 O9         -2.4880   -6.5630   -1.5420 o         1 MOL     -0.571783
     45 H17        -4.2950   -2.7640   -0.2940 hn        1 MOL      0.339902
     46 H18        -4.9920   -5.3810   -1.1990 h1        1 MOL      0.123766
     47 H19        -4.0420   -4.9830    0.2310 h1        1 MOL      0.123766
     48 N5         -1.8960   -4.4230   -1.6010 n         1 MOL     -0.183934
     49 C16        -0.5660   -4.5190   -2.1320 c3        1 MOL     -0.212258
     50 C17         0.4050   -5.3920   -1.1880 c         1 MOL      0.595591
     51 O10         0.2980   -5.2940    0.0560 o         1 MOL     -0.536568
     52 C18        -0.0300   -3.0980   -2.2730 c3        1 MOL     -0.231634
     53 C19        -0.8420   -2.3310   -3.2780 c         1 MOL      0.626786
     54 N6         -1.3250   -1.1280   -3.0590 n         1 MOL     -0.798566
     55 O11        -1.0970   -2.8110   -4.3790 o         1 MOL     -0.593020
     56 H20        -2.0700   -3.4940   -1.2360 hn        1 MOL      0.189717
     57 H21        -0.5420   -5.0730   -3.0650 h1        1 MOL      0.093831
     58 H22         1.0110   -3.1030   -2.6050 hc        1 MOL      0.130177
     59 H23        -0.1000   -2.6490   -1.2820 hc        1 MOL      0.130177
     60 H24        -1.1830   -0.6910   -2.1570 hn        1 MOL      0.384462
     61 H25        -1.8190   -0.6640   -3.8090 hn        1 MOL      0.384462
     62 N7          1.3050   -6.1100   -1.8550 n         1 MOL     -0.460822
     63 C20         2.3790   -6.8750   -1.2900 c3        1 MOL     -0.020314
     64 C21         3.6660   -6.0500   -1.1830 c         1 MOL      0.525223
     65 O12         3.8960   -5.1520   -1.9400 o         1 MOL     -0.498667
     66 H26         1.3670   -5.9950   -2.8580 hn        1 MOL      0.307869
     67 H27         2.6180   -7.7400   -1.9030 h1        1 MOL      0.065511
     68 H28         2.0390   -7.2950   -0.3380 h1        1 MOL      0.065511
     69 N8          4.4890   -6.4350   -0.2340 n         1 MOL     -0.284924
     70 C22         5.7320   -5.7930    0.0720 c3        1 MOL     -0.426738
     71 C23         5.6820   -4.3340    0.5030 c         1 MOL      0.509170
     72 O13         6.7270   -3.6630    0.5140 o         1 MOL     -0.562764
     73 C24         6.6010   -6.6600    1.0250 c3        1 MOL      0.566064
     74 C25         6.1030   -6.4910    2.4580 c3        1 MOL     -0.271609
     75 O14         6.5460   -7.9490    0.6130 oh        1 MOL     -0.657423
     76 H29         4.2770   -7.3170    0.2160 hn        1 MOL      0.188167
     77 H30         6.2990   -5.8370   -0.8610 h1        1 MOL      0.178418
     78 H31         7.6460   -6.3380    1.0180 h1        1 MOL      0.015023
     79 H32         5.6930   -8.3730    0.7790 ho        1 MOL      0.408327
     80 H33         5.0170   -6.5120    2.5730 hc        1 MOL      0.052276
     81 H34         6.4730   -7.3660    3.0070 hc        1 MOL      0.052276
     82 H35         6.5500   -5.6500    2.9910 hc        1 MOL      0.052276
     83 N9          4.5360   -3.7620    0.8820 n         1 MOL     -0.040982
     84 C26         4.3170   -2.3240    1.2900 c3        1 MOL     -0.366613
     85 C27         3.0080   -1.8460    0.6030 c         1 MOL      0.343184
     86 O15         2.0780   -2.6500    0.3000 o         1 MOL     -0.409004
     87 C28         4.3400   -2.1140    2.8210 c3        1 MOL      0.060573
     88 C29         3.0890   -2.6020    3.6250 c3        1 MOL      0.028134
     89 C30         5.6340   -2.5840    3.5080 c3        1 MOL     -0.250860
     90 C31         2.8430   -1.7350    4.8890 c3        1 MOL     -0.102607
     91 H36         3.7730   -4.3940    1.0450 hn        1 MOL      0.154783
     92 H37         5.0990   -1.7730    0.7850 h1        1 MOL      0.258120
     93 H38         4.2960   -1.0260    2.9300 hc        1 MOL      0.023670
     94 H39         3.1320   -3.6340    3.9650 hc        1 MOL      0.051530
     95 H40         2.1820   -2.5290    3.0330 hc        1 MOL      0.051530
     96 H41         5.7010   -2.3170    4.5660 hc        1 MOL      0.067430
     97 H42         5.6290   -3.6760    3.4720 hc        1 MOL      0.067430
     98 H43         6.5360   -2.2330    3.0070 hc        1 MOL      0.067430
     99 H44         1.9690   -2.0200    5.4700 hc        1 MOL      0.020137
    100 H45         3.6860   -1.8500    5.5850 hc        1 MOL      0.020137
    101 H46         2.6840   -0.6840    4.6420 hc        1 MOL      0.020137
    102 N10         2.8310   -0.5660    0.2340 n         1 MOL     -0.283545
    103 C32         1.6230   -0.1450   -0.5160 c3        1 MOL     -0.001079
    104 C33         1.9460    0.9640   -1.5520 c         1 MOL      0.363843
    105 O16         1.4300    1.0170   -2.6700 o         1 MOL     -0.509144
    106 C34         0.6900    0.4600    0.5360 c3        1 MOL     -0.199813
    107 C35        -0.5220    1.1290   -0.1250 c         1 MOL      0.740482
    108 O17        -1.3400    0.4010   -0.7410 o         1 MOL     -0.735214
    109 O18        -0.5730    2.3790   -0.3030 o         1 MOL     -0.735214
    110 H47         3.5810    0.0880    0.4170 hn        1 MOL      0.253735
    111 H48         1.1340   -0.9660   -1.0420 h1        1 MOL      0.113574
    112 H49         1.2650    1.1410    1.1690 hc        1 MOL      0.079005
    113 H50         0.3650   -0.3470    1.2040 hc        1 MOL      0.079005
    114 N11         2.9060    1.7900   -1.1240 n         1 MOL     -0.208446
    115 C36         3.5260    2.8920   -1.9050 c3        1 MOL      0.343279
    116 C37         3.7740    4.0540   -0.9650 c         1 MOL      0.081105
    117 O19         3.9920    3.8910    0.2390 o         1 MOL     -0.398093
    118 C38         4.8510    2.3180   -2.4740 c3        1 MOL     -0.362814
    119 C39         5.8120    1.5100   -1.5550 ca        1 MOL      0.147712
    120 C40         6.5990    2.1650   -0.5650 ca        1 MOL     -0.227365
    121 C41         5.9400    0.0930   -1.6360 ca        1 MOL     -0.227365
    122 C42         7.4510    1.4560    0.2780 ca        1 MOL     -0.028118
    123 C43         6.7670   -0.5640   -0.7820 ca        1 MOL     -0.028118
    124 C44         7.5160    0.0820    0.2310 ca        1 MOL     -0.210027
    125 H51         3.1310    1.7910   -0.1450 hn        1 MOL      0.203837
    126 H52         2.8720    3.1950   -2.7250 h1        1 MOL     -0.009081
    127 H53         5.3670    3.1420   -2.9700 hc        1 MOL      0.120556
    128 H54         4.6630    1.6420   -3.3010 hc        1 MOL      0.120556
    129 H55         6.5100    3.2320   -0.4530 ha        1 MOL      0.138205
    130 H56         5.4330   -0.4290   -2.4310 ha        1 MOL      0.138205
    131 H57         8.0920    2.0070    0.9540 ha        1 MOL      0.089183
    132 H58         6.8500   -1.6430   -0.9140 ha        1 MOL      0.089183
    133 H59         8.2270   -0.4320    0.8730 ha        1 MOL      0.140788
    134 N12         3.7280    5.3170   -1.4990 n         1 MOL      0.026143
    135 C45         4.0610    6.4990   -0.6620 c3        1 MOL      0.098354
    136 C46         3.3460    6.5820    0.7190 c         1 MOL      0.324875
    137 O20         3.7810    7.2190    1.6350 o         1 MOL     -0.501754
    138 C47         3.6880    7.6610   -1.5350 c3        1 MOL      0.002076
    139 C48         4.0030    7.0510   -2.9110 c3        1 MOL     -0.022204
    140 C49         3.5000    5.6120   -2.9320 c3        1 MOL     -0.288184
    141 H60         5.1430    6.5780   -0.5530 h1        1 MOL      0.035354
    142 H61         2.6060    7.7910   -1.4380 hc        1 MOL      0.017822
    143 H62         4.2390    8.5870   -1.3730 hc        1 MOL      0.017822
    144 H63         3.5640    7.6240   -3.7340 hc        1 MOL      0.031506
    145 H64         5.0710    7.1680   -3.1030 hc        1 MOL      0.031506
    146 H65         2.4320    5.7740   -3.0720 h1        1 MOL      0.138495
    147 H66         4.1700    5.0890   -3.6150 h1        1 MOL      0.138495
    148 N13         2.1820    5.9490    0.8720 n         1 MOL     -0.196337
    149 C50         1.4030    6.0830    2.1590 c3        1 MOL     -0.160800
    150 C51         2.0650    5.2760    3.3190 c         1 MOL      0.400752
    151 O21         1.7030    5.5190    4.4530 o         1 MOL     -0.509302
    152 C52         0.0180    5.4240    1.9430 c3        1 MOL      0.267461
    153 C53        -0.8380    6.2930    1.0390 c3        1 MOL     -0.143324
    154 C54        -2.1180    5.6030    0.6450 c         1 MOL      0.769579
    155 O22        -2.1780    5.0840   -0.4800 o         1 MOL     -0.743572
    156 O23        -3.0360    5.4860    1.4850 o         1 MOL     -0.743572
    157 H67         1.7980    5.3050    0.1960 hn        1 MOL      0.238506
    158 H68         1.3200    7.1510    2.3770 h1        1 MOL      0.144266
    159 H69        -0.5110    5.3930    2.8950 hc        1 MOL     -0.033914
    160 H70         0.1900    4.4070    1.5770 hc        1 MOL     -0.033914
    161 H71        -0.2920    6.4990    0.1100 hc        1 MOL     -0.027747
    162 H72        -0.9710    7.2290    1.5790 hc        1 MOL     -0.027747
    163 N14         3.0810    4.4290    2.9690 n         1 MOL     -0.105448
    164 C55         3.9490    3.8270    4.0240 c3        1 MOL     -0.391677
    165 H73         4.2880    4.6080    4.7040 h1        1 MOL      0.138189
    166 H74         3.3810    3.0820    4.5810 h1        1 MOL      0.138189
    167 H75         4.8120    3.3530    3.5570 h1        1 MOL      0.138189
    168 H76         3.2870    4.1830    2.0090 hn        1 MOL      0.151403
    169 Ca1        -2.8570    2.6870   -1.5430 Ca        1 MOL      1.776744
    170 O24        -2.7410    4.4390   -3.5970 oh        1 MOL     -0.862342
    171 H77        -2.4920    5.3440   -3.4260 ho        1 MOL      0.413846
    172 H78        -2.8680    4.4010   -4.5410 ho        1 MOL      0.413846
    173 O25        -1.1570    1.7470   -3.3070 oh        1 MOL     -0.862342
    174 H79        -1.0190    1.6900   -4.2500 ho        1 MOL      0.413846
    175 H80        -0.3790    1.3380   -2.9230 ho        1 MOL      0.413846
    176 O26        -3.6740    3.0250    1.1490 oh        1 MOL     -0.862342
    177 H81        -4.2390    2.5950    1.7900 ho        1 MOL      0.413846
    178 H82        -3.6940    3.9440    1.3970 ho        1 MOL      0.413846
    179 O27        -5.2920    3.7190   -1.6440 oh        1 MOL     -0.862342
    180 H83        -6.0090    3.4080   -2.1930 ho        1 MOL      0.413846
    181 H84        -5.7010    4.3570   -1.0550 ho        1 MOL      0.413846
@<TRIPOS>BOND
     1    1    2 1   
     2    1    4 1   
     3    1    5 1   
     4    1    6 1   
     5    2    3 2   
     6    2    7 1   
     7    7    8 1   
     8    7   15 1   
     9    8    9 1   
    10    8   11 1   
    11    8   16 1   
    12    9   10 2   
    13    9   19 1   
    14   11   12 1   
    15   11   17 1   
    16   11   18 1   
    17   12   13 1   
    18   12   14 1   
    19   19   20 1   
    20   19   24 1   
    21   20   21 1   
    22   20   23 1   
    23   20   25 1   
    24   21   22 2   
    25   21   29 1   
    26   23   26 1   
    27   23   27 1   
    28   23   28 1   
    29   29   30 1   
    30   29   37 1   
    31   30   31 1   
    32   30   33 1   
    33   30   38 1   
    34   31   32 2   
    35   31   41 1   
    36   33   34 1   
    37   33   39 1   
    38   33   40 1   
    39   34   35 1   
    40   34   36 1   
    41   41   42 1   
    42   41   45 1   
    43   42   43 1   
    44   42   46 1   
    45   42   47 1   
    46   43   44 2   
    47   43   48 1   
    48   48   49 1   
    49   48   56 1   
    50   49   50 1   
    51   49   52 1   
    52   49   57 1   
    53   50   51 2   
    54   50   62 1   
    55   52   53 1   
    56   52   58 1   
    57   52   59 1   
    58   53   54 1   
    59   53   55 2   
    60   54   60 1   
    61   54   61 1   
    62   62   63 1   
    63   62   66 1   
    64   63   64 1   
    65   63   67 1   
    66   63   68 1   
    67   64   65 2   
    68   64   69 1   
    69   69   70 1   
    70   69   76 1   
    71   70   71 1   
    72   70   73 1   
    73   70   77 1   
    74   71   72 2   
    75   71   83 1   
    76   73   74 1   
    77   73   75 1   
    78   73   78 1   
    79   74   80 1   
    80   74   81 1   
    81   74   82 1   
    82   75   79 1   
    83   83   84 1   
    84   83   91 1   
    85   84   85 1   
    86   84   87 1   
    87   84   92 1   
    88   85   86 2   
    89   85  102 1   
    90   87   88 1   
    91   87   89 1   
    92   87   93 1   
    93   88   90 1   
    94   88   94 1   
    95   88   95 1   
    96   89   96 1   
    97   89   97 1   
    98   89   98 1   
    99   90   99 1   
   100   90  100 1   
   101   90  101 1   
   102  102  103 1   
   103  102  110 1   
   104  103  104 1   
   105  103  106 1   
   106  103  111 1   
   107  104  105 2   
   108  104  114 1   
   109  106  107 1   
   110  106  112 1   
   111  106  113 1   
   112  107  108 1   
   113  107  109 1   
   114  114  115 1   
   115  114  125 1   
   116  115  116 1   
   117  115  118 1   
   118  115  126 1   
   119  116  117 2   
   120  116  134 1   
   121  118  119 1   
   122  118  127 1   
   123  118  128 1   
   124  119  120 ar  
   125  119  121 ar  
   126  120  122 ar  
   127  120  129 1   
   128  121  123 ar  
   129  121  130 1   
   130  122  124 ar  
   131  122  131 1   
   132  123  124 ar  
   133  123  132 1   
   134  124  133 1   
   135  134  135 1   
   136  134  140 1   
   137  135  136 1   
   138  135  138 1   
   139  135  141 1   
   140  136  137 2   
   141  136  148 1   
   142  138  139 1   
   143  138  142 1   
   144  138  143 1   
   145  139  140 1   
   146  139  144 1   
   147  139  145 1   
   148  140  146 1   
   149  140  147 1   
   150  148  149 1   
   151  148  157 1   
   152  149  150 1   
   153  149  152 1   
   154  149  158 1   
   155  150  151 2   
   156  150  163 1   
   157  152  153 1   
   158  152  159 1   
   159  152  160 1   
   160  153  154 1   
   161  153  161 1   
   162  153  162 1   
   163  154  155 1   
   164  154  156 1   
   165  163  164 1   
   166  163  168 1   
   167  164  165 1   
   168  164  166 1   
   169  164  167 1   
   170  170  171 1   
   171  170  172 1   
   172  173  174 1   
   173  173  175 1   
   174  176  177 1   
   175  176  178 1   
   176  179  180 1   
   177  179  181 1   
@<TRIPOS>SUBSTRUCTURE
     1 MOL         1 TEMP              0 ****  ****    0 ROOT
