@<TRIPOS>MOLECULE
MOL
  195   189     1     0     0
SMALL
resp


@<TRIPOS>ATOM
      1 C1          6.7280    3.4060    4.4160 c3        1 MOL     -0.509059
      2 C2          5.7260    2.5880    3.4970 c         1 MOL      0.682851
      3 O1          5.1060    3.1810    2.6900 o         1 MOL     -0.512199
      4 H1          6.1750    4.1660    4.9680 hc        1 MOL      0.127188
      5 H2          7.2140    2.7290    5.1170 hc        1 MOL      0.127188
      6 H3          7.4810    3.8880    3.7920 hc        1 MOL      0.127188
      7 N1          5.7880    1.2570    3.6610 n         1 MOL     -0.471589
      8 C3          5.2980    0.3590    2.6180 c3        1 MOL      0.176645
      9 C4          3.8020    0.3740    2.2020 c         1 MOL     -0.048747
     10 O2          3.3940   -0.3620    1.2480 o         1 MOL     -0.271207
     11 C5          5.6660   -1.0790    2.9270 c3        1 MOL     -0.024287
     12 C6          7.1890   -1.2710    3.1750 c         1 MOL      0.653957
     13 O3          7.7140   -1.1210    4.2760 o         1 MOL     -0.692477
     14 O4          7.7180   -1.5960    2.0780 o         1 MOL     -0.692477
     15 H4          6.2530    0.8550    4.4720 hn        1 MOL      0.266405
     16 H5          5.7890    0.6830    1.6980 h1        1 MOL      0.079505
     17 H6          5.4370   -1.6850    2.0540 hc        1 MOL     -0.036865
     18 H7          5.2680   -1.5140    3.8430 hc        1 MOL     -0.036865
     19 N2          2.9250    1.0380    2.9040 n         1 MOL     -0.065914
     20 C7          1.4310    1.0020    2.8560 c3        1 MOL      0.251768
     21 C8          0.9750    2.2950    2.1700 c         1 MOL      0.182826
     22 O5          1.4310    3.4140    2.5660 o         1 MOL     -0.474082
     23 C9          0.8390    0.8570    4.2440 c3        1 MOL     -0.093091
     24 C10         0.9940   -0.5700    4.8290 c3        1 MOL     -0.063727
     25 C11         0.2310   -0.8860    6.1630 c3        1 MOL     -0.026373
     26 C12         1.0390   -1.9660    7.0110 c3        1 MOL      0.019065
     27 N3          0.1750   -2.7430    7.9780 n4        1 MOL     -0.285698
     28 H8          3.2600    1.6150    3.6740 hn        1 MOL      0.161362
     29 H9          1.1800    0.1780    2.1970 h1        1 MOL      0.020841
     30 H10        -0.2390    1.0180    4.2050 hc        1 MOL      0.052060
     31 H11         1.3580    1.5530    4.9060 hc        1 MOL      0.052060
     32 H12         2.0610   -0.7480    4.9030 hc        1 MOL      0.032662
     33 H13         0.5950   -1.3310    4.1620 hc        1 MOL      0.032662
     34 H14        -0.8140   -1.1850    6.0150 hc        1 MOL      0.052297
     35 H15         0.0790    0.0010    6.7810 hc        1 MOL      0.052297
     36 H16         1.9010   -1.5390    7.5260 hx        1 MOL      0.080063
     37 H17         1.5480   -2.6500    6.3230 hx        1 MOL      0.080063
     38 H18         0.6820   -3.2810    8.6700 hn        1 MOL      0.283493
     39 H19        -0.4330   -2.1410    8.5080 hn        1 MOL      0.283493
     40 H20        -0.4600   -3.4150    7.5810 hn        1 MOL      0.283493
     41 N4          0.0190    2.2950    1.2110 n         1 MOL      0.019870
     42 C13        -0.7050    1.2000    0.3920 c3        1 MOL     -0.579489
     43 C14        -1.3120    0.0560    1.2330 c         1 MOL      0.750538
     44 O6         -0.7010   -0.9910    1.4480 o         1 MOL     -0.578496
     45 C15         0.0580    0.7080   -0.9020 c3        1 MOL     -0.100233
     46 C16         0.2500    1.8520   -1.9780 c         1 MOL      0.610519
     47 O7         -0.3990    2.9280   -1.8940 o         1 MOL     -0.674280
     48 O8          1.1620    1.6900   -2.8320 o         1 MOL     -0.674280
     49 H21        -0.0040    3.1770    0.7320 hn        1 MOL      0.115444
     50 H22        -1.5590    1.6410   -0.1140 h1        1 MOL      0.079136
     51 H23        -0.5640   -0.0360   -1.4190 hc        1 MOL      0.083179
     52 H24         1.0080    0.2330   -0.6370 hc        1 MOL      0.083179
     53 N5         -2.5220    0.2620    1.8660 n         1 MOL     -0.617854
     54 C17        -3.3720    1.4410    1.7950 c3        1 MOL      0.357602
     55 C18        -3.9340    1.7630    3.1200 c         1 MOL      0.523686
     56 O9         -3.6570    1.1180    4.0890 o         1 MOL     -0.554788
     57 H25        -2.9020   -0.4440    2.4820 hn        1 MOL      0.348578
     58 H26        -4.1660    1.1550    1.1160 h1        1 MOL     -0.042816
     59 H27        -2.8410    2.3210    1.4340 h1        1 MOL     -0.042816
     60 N6         -4.8870    2.7270    3.1610 n         1 MOL     -0.567940
     61 C19        -5.4150    3.6290    2.1780 c3        1 MOL      0.294370
     62 C20        -6.3230    2.9420    1.1490 c         1 MOL      0.499873
     63 O10        -7.1720    2.0650    1.4830 o         1 MOL     -0.427430
     64 C21        -6.0790    4.8040    2.8510 c3        1 MOL     -0.367267
     65 C22        -7.0520    4.4300    4.0060 c         1 MOL      0.720403
     66 O11        -7.8760    5.3160    4.4310 o         1 MOL     -0.644446
     67 O12        -7.0880    3.3450    4.6190 o         1 MOL     -0.644446
     68 H28        -5.3390    2.7990    4.0650 hn        1 MOL      0.323929
     69 H29        -4.5060    3.9560    1.6740 h1        1 MOL     -0.059179
     70 H30        -6.5490    5.4580    2.1220 hc        1 MOL      0.079163
     71 H31        -5.3460    5.4780    3.2920 hc        1 MOL      0.079163
     72 N7         -6.1360    3.3060   -0.1610 n         1 MOL     -0.424787
     73 C23        -7.0480    2.9490   -1.2480 c3        1 MOL     -0.270933
     74 C24        -6.7980    1.5550   -1.8680 c         1 MOL      0.414408
     75 O13        -7.7200    0.8140   -2.1940 o         1 MOL     -0.505943
     76 H32        -5.6310    4.1640   -0.3150 hn        1 MOL      0.245975
     77 H33        -6.7760    3.6130   -2.0630 h1        1 MOL      0.160624
     78 H34        -8.0860    2.9790   -0.9180 h1        1 MOL      0.160624
     79 N8         -5.5310    1.0060   -1.8350 n         1 MOL     -0.149439
     80 C25        -5.1910   -0.3650   -2.3220 c3        1 MOL     -0.035771
     81 C26        -5.4290   -1.4530   -1.2320 c         1 MOL      0.642253
     82 O14        -5.2100   -1.2920   -0.0750 o         1 MOL     -0.504477
     83 C27        -3.7400   -0.3680   -2.9220 c3        1 MOL      0.296090
     84 C28        -3.5920    0.7330   -3.9930 c3        1 MOL     -0.302524
     85 O15        -3.5320   -1.5590   -3.5090 oh        1 MOL     -0.530313
     86 H35        -4.7560    1.5670   -1.5320 hn        1 MOL      0.118181
     87 H36        -5.8600   -0.4930   -3.1710 h1        1 MOL      0.084942
     88 H37        -3.0000   -0.1730   -2.1510 h1        1 MOL      0.116570
     89 H38        -2.5800   -1.6920   -3.3970 ho        1 MOL      0.361601
     90 H39        -4.1870    0.5510   -4.8860 hc        1 MOL      0.056555
     91 H40        -3.8420    1.7040   -3.5670 hc        1 MOL      0.056555
     92 H41        -2.5370    0.8670   -4.2490 hc        1 MOL      0.056555
     93 N9         -5.9220   -2.6330   -1.6900 n         1 MOL     -0.645821
     94 C29        -5.9850   -3.7840   -0.8030 c3        1 MOL      0.200719
     95 C30        -4.6360   -4.4350   -0.5540 c         1 MOL      0.297120
     96 O16        -4.5920   -5.3250    0.2870 o         1 MOL     -0.528206
     97 C31        -7.0500   -4.7600   -1.2030 c3        1 MOL      0.143910
     98 C32        -7.6410   -5.5950   -0.0950 c3        1 MOL      0.021648
     99 C33        -6.6250   -5.5780   -2.3760 c3        1 MOL     -0.336745
    100 C34        -8.3790   -4.8380    1.0510 c3        1 MOL     -0.303071
    101 H42        -6.1170   -2.6920   -2.6840 hn        1 MOL      0.317637
    102 H43        -6.3250   -3.4260    0.1620 h1        1 MOL      0.089197
    103 H44        -7.8260   -4.1150   -1.6020 hc        1 MOL      0.017544
    104 H45        -6.8930   -6.2870    0.2820 hc        1 MOL      0.018644
    105 H46        -8.3850   -6.2860   -0.5000 hc        1 MOL      0.018644
    106 H47        -6.0440   -4.9540   -3.0420 hc        1 MOL      0.077452
    107 H48        -5.9850   -6.3770   -2.0000 hc        1 MOL      0.077452
    108 H49        -7.4550   -6.0120   -2.9450 hc        1 MOL      0.077452
    109 H50        -8.9850   -5.5180    1.6510 hc        1 MOL      0.078702
    110 H51        -7.6410   -4.4350    1.7510 hc        1 MOL      0.078702
    111 H52        -8.9880   -4.0130    0.6600 hc        1 MOL      0.078702
    112 N10        -3.5910   -4.0780   -1.2260 n         1 MOL      0.003959
    113 C35        -2.2750   -4.8480   -1.3150 c3        1 MOL     -0.187794
    114 C36        -1.0810   -3.9790   -1.2000 c         1 MOL      0.794439
    115 O17        -1.0350   -2.9900   -1.8840 o         1 MOL     -0.539018
    116 C37        -2.1020   -5.8960   -2.4540 c3        1 MOL      0.466303
    117 C38        -1.9360   -5.3550   -3.8380 c3        1 MOL     -0.283275
    118 O18        -3.2500   -6.7410   -2.4660 oh        1 MOL     -0.655805
    119 H53        -3.5680   -3.1630   -1.6350 hn        1 MOL      0.006762
    120 H54        -2.1070   -5.4450   -0.4170 h1        1 MOL      0.018042
    121 H55        -1.2070   -6.4870   -2.2360 h1        1 MOL     -0.024100
    122 H56        -3.7190   -6.8340   -1.6360 ho        1 MOL      0.384162
    123 H57        -1.0910   -4.6770   -3.8910 hc        1 MOL      0.076252
    124 H58        -1.6340   -6.2030   -4.4490 hc        1 MOL      0.076252
    125 H59        -2.8940   -4.9170   -4.1460 hc        1 MOL      0.076252
    126 N11        -0.1370   -4.4080   -0.3640 n         1 MOL     -0.699328
    127 C39         1.0670   -3.6640    0.0520 c3        1 MOL      0.146443
    128 C40         2.1380   -3.6090   -1.0670 c         1 MOL      0.465497
    129 O19         2.0920   -4.3940   -2.0070 o         1 MOL     -0.526508
    130 C41         1.5700   -3.9750    1.4510 c3        1 MOL      0.436263
    131 C42         2.2130   -5.3950    1.5280 c3        1 MOL     -0.353436
    132 O20         0.4520   -4.0780    2.2620 oh        1 MOL     -0.625524
    133 H60        -0.3320   -5.1920    0.2280 hn        1 MOL      0.371608
    134 H61         0.7450   -2.6210    0.0830 h1        1 MOL      0.075089
    135 H62         2.1820   -3.1810    1.8730 h1        1 MOL     -0.024534
    136 H63         0.7330   -4.0560    3.1750 ho        1 MOL      0.376092
    137 H64         3.0610   -5.3320    0.8460 hc        1 MOL      0.078120
    138 H65         2.7110   -5.5690    2.4870 hc        1 MOL      0.078120
    139 H66         1.4910   -6.1410    1.2010 hc        1 MOL      0.078120
    140 N12         3.0200   -2.6110   -0.8750 n         1 MOL     -0.382426
    141 C43         4.2060   -2.4770   -1.7960 c3        1 MOL      0.026150
    142 C44         4.5920   -1.0680   -2.1590 c         1 MOL      0.796361
    143 O21         5.0640   -0.8540   -3.2420 o         1 MOL     -0.716407
    144 C45         5.4250   -3.0860   -1.1300 c3        1 MOL     -0.147084
    145 C46         6.5480   -3.4470   -2.0860 c3        1 MOL      0.056916
    146 C47         7.4970   -4.4300   -1.5450 c3        1 MOL     -0.011139
    147 C48         8.7990   -4.3280   -2.3770 c3        1 MOL      0.067836
    148 N13         9.8640   -3.3410   -1.9190 n4        1 MOL     -0.286627
    149 H67         3.0250   -2.1560    0.0250 hn        1 MOL      0.151266
    150 H68         3.9920   -2.9430   -2.7560 h1        1 MOL      0.101561
    151 H69         5.0440   -3.9930   -0.6540 hc        1 MOL      0.064923
    152 H70         5.7200   -2.5050   -0.2660 hc        1 MOL      0.064923
    153 H71         7.1720   -2.5540   -2.1710 hc        1 MOL      0.028348
    154 H72         6.1750   -3.7240   -3.0790 hc        1 MOL      0.028348
    155 H73         7.0340   -5.4260   -1.5770 hc        1 MOL      0.025277
    156 H74         7.7320   -4.1520   -0.5240 hc        1 MOL      0.025277
    157 H75         8.6350   -4.1850   -3.4510 hx        1 MOL      0.044576
    158 H76         9.2890   -5.2900   -2.2650 hx        1 MOL      0.044576
    159 H77        10.3350   -3.8620   -1.1960 hn        1 MOL      0.311087
    160 H78        10.6210   -3.2310   -2.5650 hn        1 MOL      0.311087
    161 H79         9.6130   -2.4810   -1.4600 hn        1 MOL      0.311087
    162 N14         4.2600   -0.0440   -1.3710 n         1 MOL     -0.681295
    163 C49         4.5780    1.3550   -1.7330 c3        1 MOL     -0.002831
    164 C50         6.1140    1.5970   -1.9040 c         1 MOL      0.340299
    165 O22         6.9560    1.3430   -1.0110 o         1 MOL     -0.510211
    166 C51         3.8370    2.3090   -0.7150 c3        1 MOL      0.585178
    167 C52         3.9360    3.8590   -1.0320 c3        1 MOL     -0.649934
    168 C53         3.4130    4.1160   -2.4840 c         1 MOL      0.846087
    169 O23         4.0770    3.7790   -3.5240 o         1 MOL     -0.763916
    170 O24         2.3520    4.7510   -2.5440 o         1 MOL     -0.763916
    171 H80         3.8230   -0.2760   -0.4980 hn        1 MOL      0.259039
    172 H81         4.0980    1.4380   -2.7130 h1        1 MOL      0.229134
    173 H82         4.2380    2.1560    0.2930 hc        1 MOL     -0.047102
    174 H83         2.7820    2.0400   -0.7070 hc        1 MOL     -0.047102
    175 H84         4.9450    4.2630   -0.9130 hc        1 MOL      0.124155
    176 H85         3.3510    4.3200   -0.2320 hc        1 MOL      0.124155
    177 N15         6.4640    2.0390   -3.1050 n         1 MOL     -0.171469
    178 C54         7.7870    2.5660   -3.4120 c3        1 MOL     -0.173413
    179 H86         8.1760    2.0730   -4.3020 h1        1 MOL      0.073029
    180 H87         7.7190    3.6390   -3.5920 h1        1 MOL      0.073029
    181 H88         8.4560    2.3800   -2.5720 h1        1 MOL      0.073029
    182 H89         5.7470    2.0890   -3.8170 hn        1 MOL      0.278348
    183 Ca1        -0.3310    5.4000   -2.6190 Ca        1 MOL      1.735219
    184 O25         0.1600    6.0610   -5.1680 oh        1 MOL     -0.859170
    185 H90         0.2080    7.0010   -5.3940 ho        1 MOL      0.428341
    186 H91         0.1960    5.6160   -6.0160 ho        1 MOL      0.428341
    187 O26        -1.5720    7.8120   -3.5600 oh        1 MOL     -0.859170
    188 H92        -2.4780    7.9770   -3.8110 ho        1 MOL      0.428341
    189 H93        -1.0580    8.1380   -4.2920 ho        1 MOL      0.428341
    190 O27        -1.8630    3.8540   -4.5430 oh        1 MOL     -0.859170
    191 H94        -2.6800    3.5460   -4.1620 ho        1 MOL      0.428341
    192 H95        -1.5250    3.1010   -5.0320 ho        1 MOL      0.428341
    193 O28         1.3280    7.2860   -1.6150 oh        1 MOL     -0.859170
    194 H96         2.2700    7.1250   -1.6690 ho        1 MOL      0.428341
    195 H97         1.2410    8.1890   -1.3200 ho        1 MOL      0.428341
@<TRIPOS>BOND
     1    1    2 1   
     2    1    4 1   
     3    1    5 1   
     4    1    6 1   
     5    2    3 2   
     6    2    7 1   
     7    7    8 1   
     8    7   15 1   
     9    8    9 1   
    10    8   11 1   
    11    8   16 1   
    12    9   10 2   
    13    9   19 1   
    14   11   12 1   
    15   11   17 1   
    16   11   18 1   
    17   12   13 1   
    18   12   14 1   
    19   19   20 1   
    20   19   28 1   
    21   20   21 1   
    22   20   23 1   
    23   20   29 1   
    24   21   22 2   
    25   21   41 1   
    26   23   24 1   
    27   23   30 1   
    28   23   31 1   
    29   24   25 1   
    30   24   32 1   
    31   24   33 1   
    32   25   26 1   
    33   25   34 1   
    34   25   35 1   
    35   26   27 1   
    36   26   36 1   
    37   26   37 1   
    38   27   38 1   
    39   27   39 1   
    40   27   40 1   
    41   41   42 1   
    42   41   49 1   
    43   42   43 1   
    44   42   45 1   
    45   42   50 1   
    46   43   44 2   
    47   43   53 1   
    48   45   46 1   
    49   45   51 1   
    50   45   52 1   
    51   46   47 1   
    52   46   48 1   
    53   53   54 1   
    54   53   57 1   
    55   54   55 1   
    56   54   58 1   
    57   54   59 1   
    58   55   56 2   
    59   55   60 1   
    60   60   61 1   
    61   60   68 1   
    62   61   62 1   
    63   61   64 1   
    64   61   69 1   
    65   62   63 2   
    66   62   72 1   
    67   64   65 1   
    68   64   70 1   
    69   64   71 1   
    70   65   66 1   
    71   65   67 1   
    72   72   73 1   
    73   72   76 1   
    74   73   74 1   
    75   73   77 1   
    76   73   78 1   
    77   74   75 2   
    78   74   79 1   
    79   79   80 1   
    80   79   86 1   
    81   80   81 1   
    82   80   83 1   
    83   80   87 1   
    84   81   82 2   
    85   81   93 1   
    86   83   84 1   
    87   83   85 1   
    88   83   88 1   
    89   84   90 1   
    90   84   91 1   
    91   84   92 1   
    92   85   89 1   
    93   93   94 1   
    94   93  101 1   
    95   94   95 1   
    96   94   97 1   
    97   94  102 1   
    98   95   96 2   
    99   95  112 1   
   100   97   98 1   
   101   97   99 1   
   102   97  103 1   
   103   98  100 1   
   104   98  104 1   
   105   98  105 1   
   106   99  106 1   
   107   99  107 1   
   108   99  108 1   
   109  100  109 1   
   110  100  110 1   
   111  100  111 1   
   112  112  113 1   
   113  112  119 1   
   114  113  114 1   
   115  113  116 1   
   116  113  120 1   
   117  114  115 2   
   118  114  126 1   
   119  116  117 1   
   120  116  118 1   
   121  116  121 1   
   122  117  123 1   
   123  117  124 1   
   124  117  125 1   
   125  118  122 1   
   126  126  127 1   
   127  126  133 1   
   128  127  128 1   
   129  127  130 1   
   130  127  134 1   
   131  128  129 2   
   132  128  140 1   
   133  130  131 1   
   134  130  132 1   
   135  130  135 1   
   136  131  137 1   
   137  131  138 1   
   138  131  139 1   
   139  132  136 1   
   140  140  141 1   
   141  140  149 1   
   142  141  142 1   
   143  141  144 1   
   144  141  150 1   
   145  142  143 2   
   146  142  162 1   
   147  144  145 1   
   148  144  151 1   
   149  144  152 1   
   150  145  146 1   
   151  145  153 1   
   152  145  154 1   
   153  146  147 1   
   154  146  155 1   
   155  146  156 1   
   156  147  148 1   
   157  147  157 1   
   158  147  158 1   
   159  148  159 1   
   160  148  160 1   
   161  148  161 1   
   162  162  163 1   
   163  162  171 1   
   164  163  164 1   
   165  163  166 1   
   166  163  172 1   
   167  164  165 2   
   168  164  177 1   
   169  166  167 1   
   170  166  173 1   
   171  166  174 1   
   172  167  168 1   
   173  167  175 1   
   174  167  176 1   
   175  168  169 1   
   176  168  170 1   
   177  177  178 1   
   178  177  182 1   
   179  178  179 1   
   180  178  180 1   
   181  178  181 1   
   182  184  185 1   
   183  184  186 1   
   184  187  188 1   
   185  187  189 1   
   186  190  191 1   
   187  190  192 1   
   188  193  194 1   
   189  193  195 1   
@<TRIPOS>SUBSTRUCTURE
     1 MOL         1 TEMP              0 ****  ****    0 ROOT
