@<TRIPOS>MOLECULE
MOL
  192   187     1     0     0
SMALL
resp


@<TRIPOS>ATOM
      1 C1          9.5110    1.1180    1.4430 c3        1 MOL     -0.507617
      2 C2          8.3630    0.3880    0.7740 c         1 MOL      0.810024
      3 O1          7.2880    0.3380    1.3580 o         1 MOL     -0.671190
      4 H1          9.1350    2.0200    1.9270 hc        1 MOL      0.126238
      5 H2          9.9680    0.4690    2.1900 hc        1 MOL      0.126238
      6 H3         10.2550    1.3910    0.6950 hc        1 MOL      0.126238
      7 N1          8.5440   -0.1920   -0.4490 n         1 MOL     -0.597897
      8 C3          7.4150   -0.5810   -1.3610 c3        1 MOL      0.105547
      9 C4          7.0510   -2.0490   -1.0240 c         1 MOL      0.444730
     10 O2          7.0070   -3.0430   -1.7960 o         1 MOL     -0.460163
     11 C5          7.8160   -0.1730   -2.8920 c3        1 MOL     -0.382053
     12 C6          9.2220   -0.5910   -3.2940 c         1 MOL      0.770874
     13 O3          9.8860   -1.4480   -2.6550 o         1 MOL     -0.674059
     14 O4          9.7510   -0.0180   -4.3040 o         1 MOL     -0.674059
     15 H4          9.4420   -0.1620   -0.8980 hn        1 MOL      0.300564
     16 H5          6.5410    0.0170   -1.0900 h1        1 MOL      0.135379
     17 H6          7.7770    0.9130   -2.8960 hc        1 MOL      0.118960
     18 H7          7.1210   -0.5970   -3.6220 hc        1 MOL      0.118960
     19 N2          6.6730   -2.2070    0.2430 n         1 MOL     -0.427763
     20 C7          6.1520   -3.4450    0.8410 c3        1 MOL      0.353856
     21 C8          4.7220   -3.8460    0.5270 c         1 MOL      0.291353
     22 O5          4.4680   -4.9650    0.1210 o         1 MOL     -0.522324
     23 C9          6.3500   -3.3630    2.4290 c3        1 MOL     -0.257949
     24 C10         7.8840   -3.2480    2.6170 c3        1 MOL      0.215580
     25 C11         8.2350   -3.4580    4.0890 c3        1 MOL      0.054487
     26 C12         9.5580   -2.7950    4.5680 c3        1 MOL     -0.020761
     27 N3         10.7580   -3.3780    3.8830 n4        1 MOL     -0.266127
     28 H8          6.8970   -1.4570    0.8960 hn        1 MOL      0.213547
     29 H9          6.7190   -4.3040    0.5040 h1        1 MOL      0.004073
     30 H10         6.1020   -4.3120    2.9090 hc        1 MOL      0.056395
     31 H11         5.7970   -2.4980    2.7950 hc        1 MOL      0.056395
     32 H12         8.3200   -2.3120    2.2630 hc        1 MOL     -0.053695
     33 H13         8.3980   -4.0550    2.0910 hc        1 MOL     -0.053695
     34 H14         8.2290   -4.5100    4.3640 hc        1 MOL      0.014277
     35 H15         7.4340   -3.0150    4.6770 hc        1 MOL      0.014277
     36 H16         9.5930   -2.8050    5.6540 hx        1 MOL      0.072546
     37 H17         9.5280   -1.7460    4.2560 hx        1 MOL      0.072546
     38 H18        11.6170   -3.0270    4.2800 hn        1 MOL      0.267163
     39 H19        10.7840   -4.3860    3.9430 hn        1 MOL      0.267163
     40 H20        10.7940   -3.1020    2.9050 hn        1 MOL      0.267163
     41 N4          3.8120   -2.9090    0.3970 n         1 MOL     -0.085914
     42 C13         3.7570   -1.5500    0.9170 c3        1 MOL     -0.112030
     43 C14         3.9740   -0.3760   -0.0580 c         1 MOL      0.091837
     44 O6          3.9110   -0.5630   -1.2950 o         1 MOL     -0.402754
     45 C15         2.5120   -1.2240    1.8570 c3        1 MOL     -0.281279
     46 C16         1.2310   -1.7500    1.2410 c         1 MOL      0.736387
     47 O7          0.9370   -1.3590    0.0830 o         1 MOL     -0.657959
     48 O8          0.5830   -2.5630    1.8880 o         1 MOL     -0.657959
     49 H21         2.9510   -3.2720    0.0280 hn        1 MOL      0.261100
     50 H22         4.6380   -1.5030    1.5540 h1        1 MOL      0.144191
     51 H23         2.3930   -0.1360    1.9430 hc        1 MOL      0.065050
     52 H24         2.7080   -1.7660    2.7880 hc        1 MOL      0.065050
     53 N5          4.3440    0.8370    0.3940 n         1 MOL     -0.098795
     54 C17         4.2590    2.1590   -0.3530 c3        1 MOL     -0.271895
     55 C18         2.8880    2.6460   -0.7310 c         1 MOL      0.878384
     56 O9          1.8200    2.1900   -0.3980 o         1 MOL     -0.649667
     57 H25         4.4530    0.9360    1.3920 hn        1 MOL      0.241796
     58 H26         4.9600    2.1830   -1.1860 h1        1 MOL      0.102853
     59 H27         4.6650    2.8390    0.3940 h1        1 MOL      0.102853
     60 N6          2.9840    3.7690   -1.4090 n         1 MOL     -0.828884
     61 C19         1.8690    4.4890   -2.0530 c3        1 MOL      0.523133
     62 C20         2.0850    6.0750   -1.8680 c         1 MOL      0.349845
     63 O10         3.1550    6.5130   -1.4860 o         1 MOL     -0.505537
     64 C21         1.6290    4.0370   -3.4930 c3        1 MOL     -0.235738
     65 C22         1.4020    2.5330   -3.6790 c         1 MOL      0.636521
     66 O11         0.4210    2.0400   -3.0040 o         1 MOL     -0.635440
     67 O12         2.1340    1.8910   -4.4470 o         1 MOL     -0.635440
     68 H28         3.9180    3.8700   -1.7810 hn        1 MOL      0.363341
     69 H29         0.9860    4.1960   -1.5020 h1        1 MOL      0.050524
     70 H30         2.4330    4.4930   -4.0770 hc        1 MOL      0.032272
     71 H31         0.7440    4.5280   -3.8970 hc        1 MOL      0.032272
     72 N7          1.1880    6.9940   -2.3040 n         1 MOL     -0.365408
     73 C23        -0.1730    6.8780   -2.8630 c3        1 MOL     -0.158722
     74 C24        -1.2130    6.5790   -1.7510 c         1 MOL      0.480076
     75 O13        -1.5580    7.4780   -0.9780 o         1 MOL     -0.508554
     76 H32         1.5650    7.9300   -2.3130 hn        1 MOL      0.310357
     77 H33        -0.2700    6.1460   -3.6740 h1        1 MOL      0.100652
     78 H34        -0.4090    7.8320   -3.3310 h1        1 MOL      0.100652
     79 N8         -1.7240    5.3500   -1.7830 n         1 MOL     -0.311597
     80 C25        -2.5160    4.6820   -0.7120 c3        1 MOL     -0.044861
     81 C26        -1.6420    3.7660    0.0930 c         1 MOL      0.798469
     82 O14        -0.8860    2.9000   -0.4360 o         1 MOL     -0.781278
     83 C27        -3.7830    4.0100   -1.1600 c3        1 MOL      0.574020
     84 C28        -4.9060    4.9080   -1.7480 c3        1 MOL     -0.473848
     85 O15        -4.3870    3.3150   -0.0350 oh        1 MOL     -0.716311
     86 H35        -1.3610    4.7270   -2.4920 hn        1 MOL      0.187993
     87 H36        -2.8230    5.5150   -0.0700 h1        1 MOL      0.040179
     88 H37        -3.5490    3.2100   -1.8660 h1        1 MOL     -0.081283
     89 H38        -5.2050    2.9540   -0.3740 ho        1 MOL      0.385406
     90 H39        -4.9640    5.8850   -1.2570 hc        1 MOL      0.122313
     91 H40        -4.5350    4.9960   -2.7720 hc        1 MOL      0.122313
     92 H41        -5.8680    4.4060   -1.6200 hc        1 MOL      0.122313
     93 N9         -1.7930    3.7890    1.4170 n         1 MOL     -0.618441
     94 C29        -1.1330    2.9140    2.4020 c3        1 MOL      0.023409
     95 C30        -1.4030    1.3990    2.1710 c         1 MOL      0.603586
     96 O16        -0.9840    0.7790    1.2160 o         1 MOL     -0.567790
     97 C31         0.3670    3.2990    2.6880 c3        1 MOL      0.289795
     98 C32         0.5830    4.8030    2.7590 c3        1 MOL     -0.102949
     99 C33         0.7550    2.5400    4.0200 c3        1 MOL     -0.386250
    100 C34        -0.4510    5.5640    3.6260 c3        1 MOL     -0.117863
    101 H42        -2.5630    4.3720    1.7110 hn        1 MOL      0.342584
    102 H43        -1.5710    3.1940    3.3520 h1        1 MOL      0.069388
    103 H44         1.0010    2.8930    1.8910 hc        1 MOL     -0.023942
    104 H45         0.5710    5.1390    1.7270 hc        1 MOL      0.050797
    105 H46         1.5860    4.9860    3.1410 hc        1 MOL      0.050797
    106 H47         0.0480    2.8040    4.8030 hc        1 MOL      0.093694
    107 H48         0.6210    1.4650    3.8980 hc        1 MOL      0.093694
    108 H49         1.7780    2.7570    4.3340 hc        1 MOL      0.093694
    109 H50        -1.4470    5.4850    3.1890 hc        1 MOL      0.027128
    110 H51        -0.4840    5.2030    4.6550 hc        1 MOL      0.027128
    111 H52        -0.1940    6.6170    3.5870 hc        1 MOL      0.027128
    112 N10        -2.2450    0.8560    3.0090 n         1 MOL     -0.335864
    113 C35        -2.6270   -0.5640    3.1510 c3        1 MOL     -0.168259
    114 C36        -4.1370   -0.8040    3.0960 c         1 MOL      0.658000
    115 O17        -4.5290   -1.9510    3.2440 o         1 MOL     -0.625553
    116 C37        -2.0130   -1.1820    4.4090 c3        1 MOL      0.431536
    117 C38        -2.2970   -0.3800    5.6600 c3        1 MOL     -0.196148
    118 O18        -0.6390   -1.3490    4.1950 oh        1 MOL     -0.633690
    119 H53        -2.4270    1.3550    3.8710 hn        1 MOL      0.162706
    120 H54        -2.2930   -1.1090    2.2630 h1        1 MOL      0.116321
    121 H55        -2.4510   -2.1580    4.6330 h1        1 MOL     -0.009362
    122 H56        -0.4340   -1.8770    3.4170 ho        1 MOL      0.384896
    123 H57        -3.3600   -0.1920    5.7800 hc        1 MOL      0.049374
    124 H58        -2.0070   -0.9880    6.5180 hc        1 MOL      0.049374
    125 H59        -1.6430    0.4670    5.8460 hc        1 MOL      0.049374
    126 N11        -4.9720    0.1320    2.8690 n         1 MOL     -0.368651
    127 C39        -6.4390    0.0010    2.7660 c3        1 MOL     -0.013279
    128 C40        -6.9170   -0.6860    1.4630 c         1 MOL      0.620548
    129 O19        -7.4200   -0.0190    0.5670 o         1 MOL     -0.570752
    130 C41        -7.0430    1.3350    3.1590 c3        1 MOL      0.247868
    131 C42        -8.5280    1.2830    3.6150 c3        1 MOL     -0.531669
    132 O20        -6.3110    1.8440    4.3010 oh        1 MOL     -0.631216
    133 H60        -4.5930    1.0350    2.6310 hn        1 MOL      0.252159
    134 H61        -6.7780   -0.6300    3.5860 h1        1 MOL      0.052453
    135 H62        -6.8270    2.0780    2.3920 h1        1 MOL      0.110890
    136 H63        -6.6000    1.3900    5.0940 ho        1 MOL      0.417126
    137 H64        -9.1050    1.1530    2.6920 hc        1 MOL      0.149215
    138 H65        -8.7780    0.6970    4.4990 hc        1 MOL      0.149215
    139 H66        -8.7710    2.2860    3.9530 hc        1 MOL      0.149215
    140 N12        -6.7840   -2.0090    1.3880 n         1 MOL     -0.597931
    141 C43        -6.5800   -2.7780    0.0810 c3        1 MOL      0.118434
    142 C44        -5.2120   -2.4950   -0.5670 c         1 MOL      0.680206
    143 O21        -4.7190   -1.3560   -0.5070 o         1 MOL     -0.561457
    144 C45        -7.8050   -2.7200   -0.8360 c3        1 MOL     -0.229995
    145 C46        -9.0680   -3.2350   -0.0950 c3        1 MOL      0.031856
    146 C47       -10.3030   -3.3050   -0.9160 c3        1 MOL     -0.087865
    147 C48       -10.5990   -1.9140   -1.4520 c3        1 MOL      0.091013
    148 N13       -11.9540   -1.8760   -2.0560 n4        1 MOL     -0.281170
    149 H67        -6.5640   -2.4890    2.2540 hn        1 MOL      0.335067
    150 H68        -6.6290   -3.8260    0.3830 h1        1 MOL      0.077060
    151 H69        -7.6990   -3.3280   -1.7300 hc        1 MOL      0.089464
    152 H70        -7.9270   -1.6650   -1.0870 hc        1 MOL      0.089464
    153 H71        -9.3170   -2.5860    0.7470 hc        1 MOL      0.029241
    154 H72        -8.7250   -4.2210    0.2250 hc        1 MOL      0.029241
    155 H73       -11.1650   -3.6530   -0.3400 hc        1 MOL      0.047853
    156 H74       -10.0680   -4.0510   -1.6670 hc        1 MOL      0.047853
    157 H75        -9.7820   -1.7240   -2.1400 hx        1 MOL      0.081740
    158 H76       -10.6670   -1.1490   -0.6870 hx        1 MOL      0.081740
    159 H77       -12.1880   -1.0300   -2.5600 hn        1 MOL      0.243525
    160 H78       -12.0500   -2.5310   -2.8250 hn        1 MOL      0.243525
    161 H79       -12.7030   -2.1100   -1.4250 hn        1 MOL      0.243525
    162 N14        -4.5800   -3.4750   -1.2520 n         1 MOL     -0.852805
    163 C49        -3.2880   -3.3690   -1.9730 c3        1 MOL      0.828154
    164 C50        -2.1350   -2.8940   -1.0390 c         1 MOL      0.151360
    165 O22        -1.5350   -1.8680   -1.2530 o         1 MOL     -0.473935
    166 C51        -3.0310   -4.6340   -2.7060 c3        1 MOL     -0.220345
    167 C52        -3.6220   -4.7510   -4.1540 c3        1 MOL     -0.138922
    168 C53        -3.2230   -6.0760   -4.8510 c         1 MOL      0.723822
    169 O23        -3.2990   -7.1520   -4.1690 o         1 MOL     -0.643504
    170 O24        -2.9400   -6.0960   -6.0350 o         1 MOL     -0.643504
    171 H80        -5.0290   -4.3760   -1.3210 hn        1 MOL      0.364730
    172 H81        -3.3220   -2.5680   -2.7150 h1        1 MOL     -0.140083
    173 H82        -3.3330   -5.4670   -2.0700 hc        1 MOL      0.041927
    174 H83        -1.9510   -4.7360   -2.7830 hc        1 MOL      0.041927
    175 H84        -3.3980   -3.8440   -4.7160 hc        1 MOL      0.006542
    176 H85        -4.7100   -4.7350   -4.1260 hc        1 MOL      0.006542
    177 N15        -1.7450   -3.5650    0.0730 n         1 MOL     -0.177487
    178 C54        -2.0990   -4.8790    0.7340 c3        1 MOL     -0.075901
    179 H86        -1.6040   -5.6950    0.2080 h1        1 MOL      0.058150
    180 H87        -1.7680   -4.8640    1.7730 h1        1 MOL      0.058150
    181 H88        -3.1790   -5.0260    0.6980 h1        1 MOL      0.058150
    182 H89        -0.9760   -3.0190    0.4380 hn        1 MOL      0.228016
    183 Ca1        -0.2700    0.3970   -1.2580 Ca        1 MOL      1.839160
    184 O25         1.2430   -0.6890   -3.2050 oh        1 MOL     -0.906860
    185 H90         1.7050    0.0540   -3.5800 ho        1 MOL      0.430069
    186 H91         1.3720   -1.4010   -3.8360 ho        1 MOL      0.430069
    187 O26        -3.0800    0.5120   -0.9120 oh        1 MOL     -0.906860
    188 H92        -3.6310   -0.2730   -0.8910 ho        1 MOL      0.430069
    189 H93        -3.6860    1.2400   -0.7850 ho        1 MOL      0.430069
    190 O27        -1.8440   -0.0700   -3.5680 oh        1 MOL     -0.906860
    191 H94        -2.7820   -0.0660   -3.3510 ho        1 MOL      0.430069
    192 H95        -1.7910   -0.5660   -4.3910 ho        1 MOL      0.430069
@<TRIPOS>BOND
     1    1    2 1   
     2    1    4 1   
     3    1    5 1   
     4    1    6 1   
     5    2    3 2   
     6    2    7 1   
     7    7    8 1   
     8    7   15 1   
     9    8    9 1   
    10    8   11 1   
    11    8   16 1   
    12    9   10 2   
    13    9   19 1   
    14   11   12 1   
    15   11   17 1   
    16   11   18 1   
    17   12   13 1   
    18   12   14 1   
    19   19   20 1   
    20   19   28 1   
    21   20   21 1   
    22   20   23 1   
    23   20   29 1   
    24   21   22 2   
    25   21   41 1   
    26   23   24 1   
    27   23   30 1   
    28   23   31 1   
    29   24   25 1   
    30   24   32 1   
    31   24   33 1   
    32   25   26 1   
    33   25   34 1   
    34   25   35 1   
    35   26   27 1   
    36   26   36 1   
    37   26   37 1   
    38   27   38 1   
    39   27   39 1   
    40   27   40 1   
    41   41   42 1   
    42   41   49 1   
    43   42   43 1   
    44   42   45 1   
    45   42   50 1   
    46   43   44 2   
    47   43   53 1   
    48   45   46 1   
    49   45   51 1   
    50   45   52 1   
    51   46   47 1   
    52   46   48 1   
    53   53   54 1   
    54   53   57 1   
    55   54   55 1   
    56   54   58 1   
    57   54   59 1   
    58   55   56 2   
    59   55   60 1   
    60   60   61 1   
    61   60   68 1   
    62   61   62 1   
    63   61   64 1   
    64   61   69 1   
    65   62   63 2   
    66   62   72 1   
    67   64   65 1   
    68   64   70 1   
    69   64   71 1   
    70   65   66 1   
    71   65   67 1   
    72   72   73 1   
    73   72   76 1   
    74   73   74 1   
    75   73   77 1   
    76   73   78 1   
    77   74   75 2   
    78   74   79 1   
    79   79   80 1   
    80   79   86 1   
    81   80   81 1   
    82   80   83 1   
    83   80   87 1   
    84   81   82 2   
    85   81   93 1   
    86   83   84 1   
    87   83   85 1   
    88   83   88 1   
    89   84   90 1   
    90   84   91 1   
    91   84   92 1   
    92   85   89 1   
    93   93   94 1   
    94   93  101 1   
    95   94   95 1   
    96   94   97 1   
    97   94  102 1   
    98   95   96 2   
    99   95  112 1   
   100   97   98 1   
   101   97   99 1   
   102   97  103 1   
   103   98  100 1   
   104   98  104 1   
   105   98  105 1   
   106   99  106 1   
   107   99  107 1   
   108   99  108 1   
   109  100  109 1   
   110  100  110 1   
   111  100  111 1   
   112  112  113 1   
   113  112  119 1   
   114  113  114 1   
   115  113  116 1   
   116  113  120 1   
   117  114  115 2   
   118  114  126 1   
   119  116  117 1   
   120  116  118 1   
   121  116  121 1   
   122  117  123 1   
   123  117  124 1   
   124  117  125 1   
   125  118  122 1   
   126  126  127 1   
   127  126  133 1   
   128  127  128 1   
   129  127  130 1   
   130  127  134 1   
   131  128  129 2   
   132  128  140 1   
   133  130  131 1   
   134  130  132 1   
   135  130  135 1   
   136  131  137 1   
   137  131  138 1   
   138  131  139 1   
   139  132  136 1   
   140  140  141 1   
   141  140  149 1   
   142  141  142 1   
   143  141  144 1   
   144  141  150 1   
   145  142  143 2   
   146  142  162 1   
   147  144  145 1   
   148  144  151 1   
   149  144  152 1   
   150  145  146 1   
   151  145  153 1   
   152  145  154 1   
   153  146  147 1   
   154  146  155 1   
   155  146  156 1   
   156  147  148 1   
   157  147  157 1   
   158  147  158 1   
   159  148  159 1   
   160  148  160 1   
   161  148  161 1   
   162  162  163 1   
   163  162  171 1   
   164  163  164 1   
   165  163  166 1   
   166  163  172 1   
   167  164  165 2   
   168  164  177 1   
   169  166  167 1   
   170  166  173 1   
   171  166  174 1   
   172  167  168 1   
   173  167  175 1   
   174  167  176 1   
   175  168  169 1   
   176  168  170 1   
   177  177  178 1   
   178  177  182 1   
   179  178  179 1   
   180  178  180 1   
   181  178  181 1   
   182  184  185 1   
   183  184  186 1   
   184  187  188 1   
   185  187  189 1   
   186  190  191 1   
   187  190  192 1   
@<TRIPOS>SUBSTRUCTURE
     1 MOL         1 TEMP              0 ****  ****    0 ROOT
