@<TRIPOS>MOLECULE
MOL
  204   195     1     0     0
SMALL
resp


@<TRIPOS>ATOM
      1 C1          2.7500    4.6500    1.4060 c3        1 MOL     -0.265573
      2 C2          1.5140    4.5610    0.4910 c         1 MOL      0.460155
      3 O1          0.6040    3.7710    0.7450 o         1 MOL     -0.501381
      4 H1          2.7990    3.7620    2.0370 hc        1 MOL      0.064458
      5 H2          3.6520    4.7100    0.7950 hc        1 MOL      0.064458
      6 H3          2.6750    5.5380    2.0340 hc        1 MOL      0.064458
      7 N1          1.5140    5.3550   -0.6220 n         1 MOL     -0.352392
      8 C3          0.5870    5.1940   -1.7510 c3        1 MOL      0.009347
      9 C4         -0.8990    5.3210   -1.2730 c         1 MOL      0.513508
     10 O2         -1.7460    4.6800   -1.8890 o         1 MOL     -0.419631
     11 C5          0.8570    3.9630   -2.5740 c3        1 MOL     -0.082796
     12 C6          0.3750    4.0100   -3.9800 c         1 MOL      0.593021
     13 O3          0.4350    2.9510   -4.6390 o         1 MOL     -0.587576
     14 O4         -0.1770    5.0190   -4.4190 o         1 MOL     -0.587576
     15 H4          2.4140    5.7980   -0.7180 hn        1 MOL      0.247494
     16 H5          0.8590    6.0470   -2.3660 h1        1 MOL      0.047472
     17 H6          0.4770    3.0640   -2.0930 hc        1 MOL      0.045166
     18 H7          1.9360    3.8270   -2.6590 hc        1 MOL      0.045166
     19 N2         -1.1950    6.1330   -0.2440 n         1 MOL     -0.347626
     20 C7         -2.5370    6.2690    0.4720 c3        1 MOL     -0.060178
     21 C8         -3.6120    7.0070   -0.2190 c         1 MOL      0.365984
     22 O5         -3.3280    7.8850   -1.0070 o         1 MOL     -0.542050
     23 C9         -2.4010    6.8470    2.0010 c3        1 MOL      0.250207
     24 C10        -1.9040    8.2570    2.0660 c3        1 MOL     -0.131459
     25 C11        -1.4820    5.9530    2.8380 c3        1 MOL     -0.478500
     26 C12        -1.9900    9.0560    3.4170 c3        1 MOL     -0.188201
     27 H8         -0.4230    6.6580    0.1330 hn        1 MOL      0.159577
     28 H9         -2.9490    5.2580    0.5710 h1        1 MOL      0.086005
     29 H10        -3.4330    6.8290    2.3470 hc        1 MOL      0.047990
     30 H11        -2.4970    8.8300    1.3550 hc        1 MOL      0.068656
     31 H12        -0.8540    8.2900    1.7680 hc        1 MOL      0.068656
     32 H13        -0.4510    6.1130    2.5160 hc        1 MOL      0.122685
     33 H14        -1.5410    6.3680    3.8450 hc        1 MOL      0.122685
     34 H15        -1.8420    4.9290    2.7370 hc        1 MOL      0.122685
     35 H16        -1.4170    8.5160    4.1660 hc        1 MOL      0.039504
     36 H17        -1.7310   10.0910    3.2170 hc        1 MOL      0.039504
     37 H18        -3.0040    9.0040    3.8060 hc        1 MOL      0.039504
     38 N3         -4.9270    6.8250   -0.1040 n         1 MOL     -0.164697
     39 C13        -5.5940    5.7720    0.6730 c3        1 MOL     -0.256095
     40 C14        -5.7860    4.4020   -0.0490 c         1 MOL      0.694371
     41 O6         -6.1630    3.3820    0.5610 o         1 MOL     -0.575407
     42 C15        -6.9680    6.1770    1.1170 c3        1 MOL     -0.066447
     43 C16        -7.9440    6.5690    0.0730 c         1 MOL      0.619593
     44 O7         -9.1700    6.3440    0.2410 o         1 MOL     -0.614786
     45 O8         -7.5690    7.0720   -1.0740 o         1 MOL     -0.614786
     46 H19        -5.5770    7.3750   -0.6500 hn        1 MOL      0.190141
     47 H20        -5.0020    5.6290    1.5820 h1        1 MOL      0.067141
     48 H21        -6.7350    7.0780    1.6970 hc        1 MOL      0.026451
     49 H22        -7.3410    5.4330    1.8230 hc        1 MOL      0.026451
     50 N4         -5.3340    4.3660   -1.3020 n         1 MOL     -0.488835
     51 C17        -5.2200    3.2240   -2.1770 c3        1 MOL     -0.009407
     52 C18        -6.4330    2.3870   -2.2670 c         1 MOL      0.414075
     53 O9         -7.5330    2.7710   -1.8360 o         1 MOL     -0.434460
     54 H23        -4.9800    5.2410   -1.6840 hn        1 MOL      0.347885
     55 H24        -4.4240    2.5560   -1.8600 h1        1 MOL      0.082584
     56 H25        -4.9360    3.6690   -3.1300 h1        1 MOL      0.082584
     57 N5         -6.1520    1.1740   -2.7810 n         1 MOL     -0.372872
     58 C19        -7.1750    0.0430   -2.9110 c3        1 MOL     -0.040622
     59 C20        -7.8630   -0.2590   -1.5570 c         1 MOL      0.406026
     60 O10        -8.9520   -0.7640   -1.5040 o         1 MOL     -0.553650
     61 C21        -6.4520   -1.2440   -3.3140 c3        1 MOL     -0.097560
     62 C22        -5.1990   -1.5560   -2.5290 c         1 MOL      0.635113
     63 O11        -4.1310   -1.1560   -3.0190 o         1 MOL     -0.642950
     64 O12        -5.2290   -2.3390   -1.5110 o         1 MOL     -0.642950
     65 H26        -5.2400    1.0220   -3.1730 hn        1 MOL      0.250780
     66 H27        -7.9870    0.3050   -3.5830 h1        1 MOL      0.078787
     67 H28        -6.0780   -1.0620   -4.3220 hc        1 MOL      0.027514
     68 H29        -7.1540   -2.0750   -3.2900 hc        1 MOL      0.027514
     69 N6         -7.1730   -0.1430   -0.4360 n         1 MOL     -0.089252
     70 C23        -7.6870   -0.4830    0.9100 c3        1 MOL     -0.188141
     71 C24        -7.8070   -1.9830    1.2050 c         1 MOL      0.475019
     72 O13        -8.4870   -2.2870    2.2160 o         1 MOL     -0.596130
     73 H30        -6.3550    0.4410   -0.5120 hn        1 MOL      0.212177
     74 H31        -8.6360    0.0280    1.0820 h1        1 MOL      0.106989
     75 H32        -6.9650   -0.0420    1.5930 h1        1 MOL      0.106989
     76 N7         -7.1070   -2.8330    0.4300 n         1 MOL      0.063478
     77 C25        -7.0340   -4.2840    0.5000 c3        1 MOL     -0.069491
     78 C26        -6.2360   -4.9470    1.6630 c         1 MOL      0.478639
     79 O14        -6.3840   -6.1570    2.0070 o         1 MOL     -0.528241
     80 C27        -8.3120   -5.0300    0.0120 c3        1 MOL      0.038768
     81 C28        -8.7560   -4.4810   -1.2970 c3        1 MOL     -0.139786
     82 C29        -9.7550   -5.3250   -1.9860 c         1 MOL      0.656367
     83 N8        -10.5940   -4.7140   -2.7620 n         1 MOL     -0.783908
     84 O15        -9.9880   -6.5190   -1.8760 o         1 MOL     -0.591967
     85 H33        -6.4720   -2.4820   -0.2770 hn        1 MOL     -0.075521
     86 H34        -6.3580   -4.4440   -0.3400 h1        1 MOL      0.120450
     87 H35        -9.0990   -5.0640    0.7580 hc        1 MOL      0.005146
     88 H36        -8.0520   -6.0720   -0.1310 hc        1 MOL      0.005146
     89 H37        -7.8560   -4.3850   -1.9110 hc        1 MOL      0.058493
     90 H38        -9.1290   -3.4690   -1.1620 hc        1 MOL      0.058493
     91 H39       -10.5970   -3.6980   -2.8410 hn        1 MOL      0.341488
     92 H40       -11.3740   -5.2360   -3.1270 hn        1 MOL      0.341488
     93 N9         -5.4660   -4.1230    2.3260 n         1 MOL     -0.411347
     94 C30        -4.6770   -4.5060    3.5600 c3        1 MOL     -0.131744
     95 C31        -3.1040   -4.2490    3.5570 c         1 MOL      0.587344
     96 O16        -2.5120   -4.9390    4.3270 o         1 MOL     -0.579758
     97 C32        -5.2730   -3.8480    4.8110 c3        1 MOL      0.336217
     98 C33        -5.2030   -2.3560    4.8800 c3        1 MOL     -0.331278
     99 C34        -6.7290   -4.2140    4.9630 c3        1 MOL     -0.331278
    100 H41        -5.3140   -3.2080    1.9350 hn        1 MOL      0.275854
    101 H42        -4.9080   -5.5440    3.7760 h1        1 MOL      0.119900
    102 H43        -4.8170   -4.2520    5.7120 hc        1 MOL     -0.044096
    103 H44        -5.8180   -1.9270    4.0910 hc        1 MOL      0.071642
    104 H45        -5.3870   -1.9870    5.8930 hc        1 MOL      0.071642
    105 H46        -4.1740   -2.0500    4.7060 hc        1 MOL      0.071642
    106 H47        -7.3020   -3.9660    4.0740 hc        1 MOL      0.071642
    107 H48        -6.7910   -5.2990    4.9380 hc        1 MOL      0.071642
    108 H49        -7.1820   -3.7880    5.8690 hc        1 MOL      0.071642
    109 N10        -2.5510   -3.3920    2.7440 n         1 MOL     -0.402132
    110 C35        -1.1060   -3.1100    2.5390 c3        1 MOL      0.240015
    111 C36        -0.6560   -3.5440    1.0950 c         1 MOL      0.530931
    112 O17        -1.5310   -3.9350    0.3140 o         1 MOL     -0.516396
    113 C37        -0.8740   -1.6010    2.9030 c3        1 MOL     -0.295677
    114 C38         0.5210   -1.1960    3.2710 c         1 MOL      0.719011
    115 N11         0.7730    0.1010    3.4060 n         1 MOL     -0.897068
    116 O18         1.4240   -1.9880    3.3710 o         1 MOL     -0.544277
    117 H50        -3.2000   -2.9630    2.1020 hn        1 MOL      0.248964
    118 H51        -0.5380   -3.7420    3.2320 h1        1 MOL      0.019741
    119 H52        -1.5840   -1.2710    3.6600 hc        1 MOL      0.075898
    120 H53        -1.1150   -1.0540    1.9930 hc        1 MOL      0.075898
    121 H54         0.0260    0.7470    3.1800 hn        1 MOL      0.386713
    122 H55         1.6470    0.4540    3.7720 hn        1 MOL      0.386713
    123 N12         0.6500   -3.4540    0.7790 n         1 MOL     -0.431582
    124 C39         1.1340   -3.8630   -0.5600 c3        1 MOL      0.020570
    125 C40         2.6710   -4.1150   -0.5560 c         1 MOL      0.514454
    126 O19         3.3060   -3.6040    0.3760 o         1 MOL     -0.541614
    127 C41         0.8440   -2.7620   -1.6350 c3        1 MOL     -0.118306
    128 C42         1.6540   -1.5520   -1.5030 ca        1 MOL      0.067041
    129 C43         1.4600   -0.6970   -0.4500 ca        1 MOL     -0.084341
    130 C44         2.7350   -1.3250   -2.3420 ca        1 MOL     -0.084341
    131 C45         2.3240    0.3870   -0.1920 ca        1 MOL     -0.280535
    132 C46         3.6280   -0.3200   -2.1500 ca        1 MOL     -0.280535
    133 C47         3.4670    0.5500   -1.0570 ca        1 MOL      0.384107
    134 O20         4.2840    1.6120   -0.7040 oh        1 MOL     -0.617479
    135 H56         1.3350   -3.0640    1.4110 hn        1 MOL      0.231756
    136 H57         0.6890   -4.8190   -0.8160 h1        1 MOL      0.095154
    137 H58        -0.2200   -2.5530   -1.5500 hc        1 MOL      0.077269
    138 H59         0.8850   -3.1590   -2.6480 hc        1 MOL      0.077269
    139 H60         0.6110   -0.8620    0.1920 ha        1 MOL      0.131525
    140 H61         2.9920   -1.8750   -3.2220 ha        1 MOL      0.131525
    141 H62         2.2420    0.9560    0.7250 ha        1 MOL      0.143010
    142 H63         4.4170   -0.1150   -2.8520 ha        1 MOL      0.143010
    143 H64         3.9990    2.0870    0.0780 ho        1 MOL      0.416110
    144 N13         3.2690   -4.8120   -1.4740 n         1 MOL     -0.443678
    145 C48         4.7540   -5.2060   -1.4600 c3        1 MOL      0.146149
    146 C49         5.4780   -4.3630   -2.4460 c         1 MOL      0.354314
    147 O21         5.3720   -4.5430   -3.6920 o         1 MOL     -0.552374
    148 C50         4.9090   -6.6830   -1.7440 c3        1 MOL      0.013010
    149 C51         4.1690   -7.7500   -0.8730 c3        1 MOL     -0.362295
    150 C52         4.3800   -9.1090   -1.5840 c         1 MOL      0.761140
    151 O22         3.8050   -9.5110   -2.6150 o         1 MOL     -0.654316
    152 O23         5.2540   -9.8630   -1.0290 o         1 MOL     -0.654316
    153 H65         2.8210   -5.1720   -2.3100 hn        1 MOL      0.294845
    154 H66         5.1760   -5.0780   -0.4610 h1        1 MOL      0.134319
    155 H67         5.9630   -6.9650   -1.7680 hc        1 MOL      0.046742
    156 H68         4.6740   -6.9020   -2.7810 hc        1 MOL      0.046742
    157 H69         3.0860   -7.6000   -0.7690 hc        1 MOL      0.073262
    158 H70         4.6970   -7.7380    0.0800 hc        1 MOL      0.073262
    159 N14         6.1740   -3.3040   -2.0610 n         1 MOL     -0.271114
    160 C53         6.3380   -2.7900   -0.6850 c3        1 MOL     -0.009128
    161 C54         7.0410   -3.6390    0.4180 c         1 MOL      0.152968
    162 O24         7.7320   -4.5810    0.0490 o         1 MOL     -0.451139
    163 C55         6.8540   -1.3300   -0.7040 c3        1 MOL     -0.957776
    164 C56         8.3470   -1.3190   -0.9190 c3        1 MOL     -0.068745
    165 C57         8.7880   -0.0060   -1.5770 c         1 MOL      0.648618
    166 O25         8.6260    1.0760   -0.9980 o         1 MOL     -0.689587
    167 O26         9.3400   -0.0700   -2.7410 o         1 MOL     -0.689587
    168 H71         6.8060   -2.8390   -2.6890 hn        1 MOL      0.341298
    169 H72         5.3170   -2.6360   -0.3390 h1        1 MOL      0.055568
    170 H73         6.7120   -0.9430    0.3050 hc        1 MOL      0.360513
    171 H74         6.3420   -0.7630   -1.4830 hc        1 MOL      0.360513
    172 H75         8.4810   -2.2110   -1.5330 hc        1 MOL      0.123300
    173 H76         8.7870   -1.5810    0.0400 hc        1 MOL      0.123300
    174 N15         6.8260   -3.4170    1.6790 n         1 MOL     -0.056996
    175 C58         7.4910   -4.1060    2.7980 c3        1 MOL     -0.122144
    176 H77         6.8270   -4.8730    3.1970 h1        1 MOL      0.073440
    177 H78         8.4110   -4.5720    2.4430 h1        1 MOL      0.073440
    178 H79         7.7260   -3.3860    3.5810 h1        1 MOL      0.073440
    179 H80         6.0190   -2.8720    1.9740 hn        1 MOL      0.227602
    180 Ca1         9.5840    2.6390    0.5890 Ca        1 MOL      1.800574
    181 O27        10.2610    2.2100    3.2550 oh        1 MOL     -0.810128
    182 H81        10.1110    2.8280    3.9730 ho        1 MOL      0.350763
    183 H82        11.2090    2.0430    3.2770 ho        1 MOL      0.350763
    184 O28         8.4450    0.3990    1.9270 oh        1 MOL     -0.810128
    185 H83         8.8610    0.5400    2.7780 ho        1 MOL      0.350763
    186 H84         7.5050    0.3980    2.1140 ho        1 MOL      0.350763
    187 O29        12.5390    3.5620    1.2270 oh        1 MOL     -0.810128
    188 H85        13.3190    3.0040    1.2270 ho        1 MOL      0.350763
    189 H86        12.6730    4.1560    0.4850 ho        1 MOL      0.350763
    190 O30         7.0240    2.7280    1.1200 oh        1 MOL     -0.810128
    191 H87         6.5030    3.4130    1.5360 ho        1 MOL      0.350763
    192 H88         6.4780    1.9450    1.1470 ho        1 MOL      0.350763
    193 O31        11.2360    3.3040   -1.4290 oh        1 MOL     -0.810128
    194 H89        11.8710    4.0160   -1.4810 ho        1 MOL      0.350763
    195 H90        10.9550    3.1610   -2.3360 ho        1 MOL      0.350763
    196 O32         9.8510    5.1820    2.2110 oh        1 MOL     -0.810128
    197 H91        10.2200    5.2960    3.0830 ho        1 MOL      0.350763
    198 H92         9.3900    6.0050    2.0240 ho        1 MOL      0.350763
    199 O33        11.2610    0.6640    0.7630 oh        1 MOL     -0.810128
    200 H93        11.0980   -0.2570    0.9570 ho        1 MOL      0.350763
    201 H94        12.2080    0.7130    0.6180 ho        1 MOL      0.350763
    202 O34         9.0740    5.0100   -0.5060 oh        1 MOL     -0.810128
    203 H95         9.6370    5.7870   -0.4150 ho        1 MOL      0.350763
    204 H96         8.4920    5.2190   -1.2420 ho        1 MOL      0.350763
@<TRIPOS>BOND
     1    1    2 1   
     2    1    4 1   
     3    1    5 1   
     4    1    6 1   
     5    2    3 2   
     6    2    7 1   
     7    7    8 1   
     8    7   15 1   
     9    8    9 1   
    10    8   11 1   
    11    8   16 1   
    12    9   10 2   
    13    9   19 1   
    14   11   12 1   
    15   11   17 1   
    16   11   18 1   
    17   12   13 1   
    18   12   14 1   
    19   19   20 1   
    20   19   27 1   
    21   20   21 1   
    22   20   23 1   
    23   20   28 1   
    24   21   22 2   
    25   21   38 1   
    26   23   24 1   
    27   23   25 1   
    28   23   29 1   
    29   24   26 1   
    30   24   30 1   
    31   24   31 1   
    32   25   32 1   
    33   25   33 1   
    34   25   34 1   
    35   26   35 1   
    36   26   36 1   
    37   26   37 1   
    38   38   39 1   
    39   38   46 1   
    40   39   40 1   
    41   39   42 1   
    42   39   47 1   
    43   40   41 2   
    44   40   50 1   
    45   42   43 1   
    46   42   48 1   
    47   42   49 1   
    48   43   44 1   
    49   43   45 1   
    50   50   51 1   
    51   50   54 1   
    52   51   52 1   
    53   51   55 1   
    54   51   56 1   
    55   52   53 2   
    56   52   57 1   
    57   57   58 1   
    58   57   65 1   
    59   58   59 1   
    60   58   61 1   
    61   58   66 1   
    62   59   60 2   
    63   59   69 1   
    64   61   62 1   
    65   61   67 1   
    66   61   68 1   
    67   62   63 1   
    68   62   64 1   
    69   69   70 1   
    70   69   73 1   
    71   70   71 1   
    72   70   74 1   
    73   70   75 1   
    74   71   72 2   
    75   71   76 1   
    76   76   77 1   
    77   76   85 1   
    78   77   78 1   
    79   77   80 1   
    80   77   86 1   
    81   78   79 2   
    82   78   93 1   
    83   80   81 1   
    84   80   87 1   
    85   80   88 1   
    86   81   82 1   
    87   81   89 1   
    88   81   90 1   
    89   82   83 1   
    90   82   84 2   
    91   83   91 1   
    92   83   92 1   
    93   93   94 1   
    94   93  100 1   
    95   94   95 1   
    96   94   97 1   
    97   94  101 1   
    98   95   96 2   
    99   95  109 1   
   100   97   98 1   
   101   97   99 1   
   102   97  102 1   
   103   98  103 1   
   104   98  104 1   
   105   98  105 1   
   106   99  106 1   
   107   99  107 1   
   108   99  108 1   
   109  109  110 1   
   110  109  117 1   
   111  110  111 1   
   112  110  113 1   
   113  110  118 1   
   114  111  112 2   
   115  111  123 1   
   116  113  114 1   
   117  113  119 1   
   118  113  120 1   
   119  114  115 1   
   120  114  116 2   
   121  115  121 1   
   122  115  122 1   
   123  123  124 1   
   124  123  135 1   
   125  124  125 1   
   126  124  127 1   
   127  124  136 1   
   128  125  126 2   
   129  125  144 1   
   130  127  128 1   
   131  127  137 1   
   132  127  138 1   
   133  128  129 ar  
   134  128  130 ar  
   135  129  131 ar  
   136  129  139 1   
   137  130  132 ar  
   138  130  140 1   
   139  131  133 ar  
   140  131  141 1   
   141  132  133 ar  
   142  132  142 1   
   143  133  134 1   
   144  134  143 1   
   145  144  145 1   
   146  144  153 1   
   147  145  146 1   
   148  145  148 1   
   149  145  154 1   
   150  146  147 2   
   151  146  159 1   
   152  148  149 1   
   153  148  155 1   
   154  148  156 1   
   155  149  150 1   
   156  149  157 1   
   157  149  158 1   
   158  150  151 1   
   159  150  152 1   
   160  159  160 1   
   161  159  168 1   
   162  160  161 1   
   163  160  163 1   
   164  160  169 1   
   165  161  162 2   
   166  161  174 1   
   167  163  164 1   
   168  163  170 1   
   169  163  171 1   
   170  164  165 1   
   171  164  172 1   
   172  164  173 1   
   173  165  166 1   
   174  165  167 1   
   175  174  175 1   
   176  174  179 1   
   177  175  176 1   
   178  175  177 1   
   179  175  178 1   
   180  181  182 1   
   181  181  183 1   
   182  184  185 1   
   183  184  186 1   
   184  187  188 1   
   185  187  189 1   
   186  190  191 1   
   187  190  192 1   
   188  193  194 1   
   189  193  195 1   
   190  196  197 1   
   191  196  198 1   
   192  199  200 1   
   193  199  201 1   
   194  202  203 1   
   195  202  204 1   
@<TRIPOS>SUBSTRUCTURE
     1 MOL         1 TEMP              0 ****  ****    0 ROOT
