@<TRIPOS>MOLECULE
MOL
  198   191     1     0     0
SMALL
resp


@<TRIPOS>ATOM
      1 C1         10.5370    5.5180   -3.3600 c3        1 MOL     -0.492910
      2 C2         10.5650    4.3940   -2.3750 c         1 MOL      0.747630
      3 O1          9.5880    3.6690   -2.2220 o         1 MOL     -0.567837
      4 H1         10.1560    5.1550   -4.3150 hc        1 MOL      0.133660
      5 H2          9.8880    6.3120   -2.9890 hc        1 MOL      0.133660
      6 H3         11.5460    5.9080   -3.4970 hc        1 MOL      0.133660
      7 N1         11.6260    4.3440   -1.5100 n         1 MOL     -0.732777
      8 C3         11.7060    3.6340   -0.2530 c3        1 MOL      0.214108
      9 C4         11.3560    2.0840   -0.3380 c         1 MOL      0.324598
     10 O2         10.9910    1.5290    0.6320 o         1 MOL     -0.465724
     11 C5         10.9100    4.3420    0.8790 c3        1 MOL     -0.183634
     12 C6         11.0360    5.8740    0.8860 c         1 MOL      0.756394
     13 O3          9.9860    6.5460    1.0440 o         1 MOL     -0.664257
     14 O4         12.1530    6.4020    1.0270 o         1 MOL     -0.664257
     15 H4         12.4200    4.9130   -1.7540 hn        1 MOL      0.342835
     16 H5         12.7490    3.7480    0.0310 h1        1 MOL      0.039268
     17 H6         11.2900    3.9310    1.8140 hc        1 MOL      0.054643
     18 H7          9.8500    4.1290    0.7360 hc        1 MOL      0.054643
     19 N2         11.3670    1.4290   -1.5040 n         1 MOL     -0.223487
     20 C7         11.0990   -0.0850   -1.6710 c3        1 MOL      0.041108
     21 C8          9.7260   -0.5260   -0.9890 c         1 MOL      0.444769
     22 O5          9.6200   -1.7060   -0.6290 o         1 MOL     -0.487914
     23 C9         12.3470   -0.8970   -1.1390 c3        1 MOL     -0.059317
     24 C10        13.6760   -0.5530   -1.8890 c3        1 MOL     -0.146927
     25 C11        13.6830   -1.0300   -3.3220 c3        1 MOL     -0.007096
     26 C12        15.1590   -0.9900   -3.7860 c3        1 MOL      0.035718
     27 N3         15.3400   -1.4770   -5.1680 n4        1 MOL     -0.137799
     28 H8         11.5660    2.0690   -2.2720 hn        1 MOL      0.178529
     29 H9         11.0010   -0.2640   -2.7440 h1        1 MOL      0.030794
     30 H10        12.1440   -1.9670   -1.0830 hc        1 MOL      0.090087
     31 H11        12.4110   -0.6220   -0.0860 hc        1 MOL      0.090087
     32 H12        14.4500   -1.0380   -1.2890 hc        1 MOL      0.046925
     33 H13        13.8430    0.5230   -1.9360 hc        1 MOL      0.046925
     34 H14        13.0920   -0.3100   -3.8830 hc        1 MOL      0.028625
     35 H15        13.2540   -2.0180   -3.5180 hc        1 MOL      0.028625
     36 H16        15.7700   -1.5670   -3.0840 hx        1 MOL      0.066375
     37 H17        15.5010    0.0450   -3.8030 hx        1 MOL      0.066375
     38 H18        16.2670   -1.4290   -5.5770 hn        1 MOL      0.209692
     39 H19        15.0460   -2.4450   -5.1850 hn        1 MOL      0.209692
     40 H20        14.6350   -1.0070   -5.7200 hn        1 MOL      0.209692
     41 N4          8.7900    0.4260   -0.7880 n         1 MOL     -0.763752
     42 C13         7.5890    0.0830   -0.1270 c3        1 MOL      1.187759
     43 C14         6.2870    0.4130   -0.9510 c         1 MOL      0.067763
     44 O6          5.8810    1.5420   -1.0970 o         1 MOL     -0.478283
     45 C15         7.5820    0.7740    1.2510 c3        1 MOL     -0.728374
     46 C16         6.2510    0.5030    2.0040 c         1 MOL      0.799888
     47 O7          5.4030   -0.3000    1.5970 o         1 MOL     -0.733361
     48 O8          6.0300    1.0230    3.1160 o         1 MOL     -0.733361
     49 H21         8.9210    1.3600   -1.1620 hn        1 MOL      0.340057
     50 H22         7.5670   -0.9910    0.0610 h1        1 MOL     -0.164717
     51 H23         7.6520    1.8530    1.0970 hc        1 MOL      0.209134
     52 H24         8.3540    0.3510    1.8940 hc        1 MOL      0.209134
     53 N5          5.6940   -0.5860   -1.6170 n         1 MOL     -0.222915
     54 C17         6.2420   -1.9740   -1.7850 c3        1 MOL     -0.088173
     55 C18         5.9320   -3.0530   -0.7320 c         1 MOL      0.510431
     56 O9          6.1780   -4.2250   -1.0480 o         1 MOL     -0.577070
     57 H25         4.8480   -0.4420   -2.1520 hn        1 MOL      0.234604
     58 H26         7.3220   -1.9250   -1.9210 h1        1 MOL      0.054272
     59 H27         5.9210   -2.2440   -2.7870 h1        1 MOL      0.054272
     60 N6          5.3770   -2.8090    0.4660 n         1 MOL     -0.061155
     61 C19         4.8920   -3.7840    1.4210 c3        1 MOL     -0.169541
     62 C20         3.4930   -3.3120    1.8120 c         1 MOL      0.413583
     63 O10         3.2930   -2.1010    2.0130 o         1 MOL     -0.514851
     64 C21         5.8450   -3.8900    2.6190 c3        1 MOL      0.106165
     65 C22         6.3090   -2.6350    3.3010 c         1 MOL      0.586059
     66 O11         5.5240   -1.9660    3.9950 o         1 MOL     -0.679456
     67 O12         7.5290   -2.3590    3.2610 o         1 MOL     -0.679456
     68 H28         5.1100   -1.8680    0.7140 hn        1 MOL      0.097736
     69 H29         4.8830   -4.7400    0.9030 h1        1 MOL      0.078227
     70 H30         6.6780   -4.5140    2.3070 hc        1 MOL     -0.019253
     71 H31         5.3140   -4.5180    3.3400 hc        1 MOL     -0.019253
     72 N7          2.5750   -4.2190    2.1150 n         1 MOL     -0.342097
     73 C23         1.2310   -3.8580    2.5850 c3        1 MOL      0.195226
     74 C24         0.3260   -3.4790    1.3510 c         1 MOL      0.304862
     75 O13        -0.8490   -3.8560    1.2230 o         1 MOL     -0.526495
     76 H32         2.8060   -5.1910    1.9510 hn        1 MOL      0.274213
     77 H33         1.3430   -2.9820    3.2230 h1        1 MOL     -0.003350
     78 H34         0.7550   -4.6420    3.1760 h1        1 MOL     -0.003350
     79 N8          0.8940   -2.7350    0.4280 n         1 MOL     -0.011488
     80 C25         0.3110   -2.4830   -0.8700 c3        1 MOL     -0.249211
     81 C26        -0.5960   -1.3020   -0.8060 c         1 MOL      0.600547
     82 O14        -0.2930   -0.3490   -0.0350 o         1 MOL     -0.551285
     83 C27         1.4020   -2.2070   -1.9370 c3        1 MOL      0.261813
     84 C28         2.2480   -0.9290   -1.8290 c3        1 MOL     -0.219709
     85 O15         2.4630   -3.1650   -1.8360 oh        1 MOL     -0.578604
     86 H35         1.8550   -2.4920    0.6250 hn        1 MOL      0.060051
     87 H36        -0.2560   -3.3620   -1.1830 h1        1 MOL      0.123840
     88 H37         1.0500   -2.3310   -2.9580 h1        1 MOL      0.032053
     89 H38         2.0700   -4.0390   -1.7120 ho        1 MOL      0.368537
     90 H39         2.5730   -0.7470   -0.8050 hc        1 MOL      0.087501
     91 H40         3.1530   -0.9020   -2.4490 hc        1 MOL      0.087501
     92 H41         1.6830   -0.0240   -2.0600 hc        1 MOL      0.087501
     93 N9         -1.6560   -1.2330   -1.5800 n         1 MOL     -0.528418
     94 C29        -2.4290   -0.0620   -1.8000 c3        1 MOL      0.004572
     95 C30        -3.7930   -0.0630   -1.0910 c         1 MOL      0.551057
     96 O16        -4.3620    1.0040   -0.7470 o         1 MOL     -0.550760
     97 C31        -2.4590    0.2720   -3.2930 c3        1 MOL      0.032954
     98 C32        -1.0030    0.7200   -3.6660 c3        1 MOL      0.086599
     99 C33        -3.3800    1.5160   -3.6070 c3        1 MOL     -0.367804
    100 C34        -0.5130    0.7840   -5.1420 c3        1 MOL     -0.293606
    101 H42        -1.8350   -1.9850   -2.2350 hn        1 MOL      0.292944
    102 H43        -1.9530    0.7520   -1.2530 h1        1 MOL      0.100378
    103 H44        -2.7050   -0.6240   -3.8520 hc        1 MOL      0.036698
    104 H45        -0.3150   -0.0530   -3.3390 hc        1 MOL      0.027339
    105 H46        -0.6990    1.6260   -3.1470 hc        1 MOL      0.027339
    106 H47        -4.3490    1.2650   -3.1790 hc        1 MOL      0.112081
    107 H48        -2.8920    2.3250   -3.0640 hc        1 MOL      0.112081
    108 H49        -3.3930    1.7590   -4.6700 hc        1 MOL      0.112081
    109 H50        -0.1230   -0.1550   -5.5390 hc        1 MOL      0.071461
    110 H51        -1.3450    1.0020   -5.8120 hc        1 MOL      0.071461
    111 H52         0.2890    1.5160   -5.2360 hc        1 MOL      0.071461
    112 N10        -4.4010   -1.2090   -0.9500 n         1 MOL     -0.403313
    113 C35        -5.5610   -1.4040   -0.1390 c3        1 MOL     -0.025006
    114 C36        -6.6410   -2.1430   -0.9920 c         1 MOL      0.678583
    115 O17        -6.2280   -2.9060   -1.8290 o         1 MOL     -0.551739
    116 C37        -5.2410   -2.1210    1.2060 c3        1 MOL      0.425500
    117 C38        -4.0910   -1.4900    1.9710 c3        1 MOL     -0.279290
    118 O18        -6.2180   -2.1630    2.2480 oh        1 MOL     -0.662057
    119 H53        -3.8530   -2.0170   -1.2450 hn        1 MOL      0.259245
    120 H54        -5.9240   -0.4220    0.1550 h1        1 MOL      0.121694
    121 H55        -4.9660   -3.1520    1.0410 h1        1 MOL     -0.028938
    122 H56        -5.9280   -2.8300    2.8710 ho        1 MOL      0.408222
    123 H57        -4.3110   -0.5050    2.3750 hc        1 MOL      0.069193
    124 H58        -3.8080   -2.1590    2.7850 hc        1 MOL      0.069193
    125 H59        -3.2230   -1.5000    1.3060 hc        1 MOL      0.069193
    126 N11        -7.9350   -1.9740   -0.6800 n         1 MOL     -0.801607
    127 C39        -8.9590   -2.5480   -1.5480 c3        1 MOL      0.296511
    128 C40       -10.2240   -1.7970   -1.7870 c         1 MOL      0.512767
    129 O19       -10.8230   -1.9130   -2.8740 o         1 MOL     -0.571172
    130 C41        -9.2770   -4.0170   -1.2980 c3        1 MOL      0.355554
    131 C42       -10.1890   -4.7820   -2.2520 c3        1 MOL     -0.426550
    132 O20        -9.6870   -4.1940    0.0540 oh        1 MOL     -0.650606
    133 H60        -8.1890   -1.3070    0.0450 hn        1 MOL      0.362571
    134 H61        -8.5250   -2.7110   -2.5300 h1        1 MOL      0.022401
    135 H62        -8.3510   -4.5730   -1.3900 h1        1 MOL      0.014175
    136 H63        -9.4090   -5.0920    0.2510 ho        1 MOL      0.389711
    137 H64       -10.2870   -5.7800   -1.8350 hc        1 MOL      0.106308
    138 H65       -11.1580   -4.3290   -2.4690 hc        1 MOL      0.106308
    139 H66        -9.6320   -4.9120   -3.1770 hc        1 MOL      0.106308
    140 N12       -10.5740   -1.0330   -0.8040 n         1 MOL     -0.501844
    141 C43       -11.8520   -0.3110   -0.8090 c3        1 MOL      0.203826
    142 C44       -11.7810    0.8510    0.1470 c         1 MOL      0.499969
    143 O21       -11.4380    0.5310    1.2810 o         1 MOL     -0.499830
    144 C45       -12.9530   -1.3460   -0.5900 c3        1 MOL     -0.290861
    145 C46       -14.3350   -0.6130   -0.5500 c3        1 MOL     -0.006750
    146 C47       -15.5680   -1.4670   -0.8330 c3        1 MOL      0.011095
    147 C48       -16.9400   -0.7330   -0.9250 c3        1 MOL      0.082831
    148 N13       -18.0860   -1.5370   -1.1810 n4        1 MOL     -0.147155
    149 H67       -10.0670   -1.0820    0.0650 hn        1 MOL      0.326958
    150 H68       -12.0340    0.2220   -1.7460 h1        1 MOL      0.027187
    151 H69       -12.6630   -1.7960    0.3600 hc        1 MOL      0.131464
    152 H70       -12.9020   -2.0670   -1.3960 hc        1 MOL      0.131464
    153 H71       -14.2770    0.2430   -1.2130 hc        1 MOL      0.036044
    154 H72       -14.5300   -0.2140    0.4410 hc        1 MOL      0.036044
    155 H73       -15.6920   -2.2320   -0.0680 hc        1 MOL      0.012929
    156 H74       -15.4480   -1.9850   -1.7870 hc        1 MOL      0.012929
    157 H75       -16.9080    0.0490   -1.6890 hx        1 MOL      0.048773
    158 H76       -17.0830   -0.2190    0.0210 hx        1 MOL      0.048773
    159 H77       -18.4330   -2.0960   -0.4070 hn        1 MOL      0.212838
    160 H78       -18.8830   -1.0520   -1.5490 hn        1 MOL      0.212838
    161 H79       -17.9350   -2.2020   -1.9330 hn        1 MOL      0.212838
    162 N14       -12.2110    2.0700   -0.2380 n         1 MOL     -0.675288
    163 C49       -12.4120    3.3040    0.6320 c3        1 MOL      0.457959
    164 C50       -11.0740    3.7230    1.2520 c         1 MOL      0.428102
    165 O22       -11.0270    3.7640    2.4800 o         1 MOL     -0.549310
    166 C51       -13.1390    4.4270   -0.1210 c3        1 MOL     -0.087130
    167 C52       -13.7810    5.2230    1.0270 c3        1 MOL     -0.290340
    168 C53       -14.3090    6.6260    0.5680 c         1 MOL      0.764901
    169 O23       -13.7990    7.6480    0.9770 o         1 MOL     -0.658603
    170 O24       -15.3410    6.6660   -0.1590 o         1 MOL     -0.658603
    171 H80       -12.6480    2.1370   -1.1490 hn        1 MOL      0.324699
    172 H81       -13.0130    3.0240    1.5050 h1        1 MOL     -0.003110
    173 H82       -13.8750    3.9930   -0.8030 hc        1 MOL      0.010755
    174 H83       -12.4060    4.9470   -0.7330 hc        1 MOL      0.010755
    175 H84       -12.9470    5.3990    1.7050 hc        1 MOL      0.064823
    176 H85       -14.5710    4.6040    1.4450 hc        1 MOL      0.064823
    177 N15        -9.9130    3.8860    0.6030 n         1 MOL     -0.385080
    178 C54        -9.6270    3.9590   -0.8680 c3        1 MOL      0.044662
    179 H86       -10.5180    3.6670   -1.4260 h1        1 MOL      0.033726
    180 H87        -9.3510    4.9800   -1.1350 h1        1 MOL      0.033726
    181 H88        -8.8080    3.2840   -1.1130 h1        1 MOL      0.033726
    182 H89        -9.0710    3.7910    1.1470 hn        1 MOL      0.305359
    183 Ca1         3.7620   -0.1420    3.6850 Ca        1 MOL      1.746411
    184 O25         3.1140   -1.9630    5.6420 oh        1 MOL     -0.818359
    185 H90         3.0070   -1.6500    6.5410 ho        1 MOL      0.409005
    186 H91         3.0040   -2.9130    5.7070 ho        1 MOL      0.409005
    187 O26         3.1170    2.5060    2.9650 oh        1 MOL     -0.818359
    188 H92         2.3420    3.0610    3.1030 ho        1 MOL      0.409005
    189 H93         3.5790    2.9180    2.2340 ho        1 MOL      0.409005
    190 O27         4.8260    0.7020    5.9350 oh        1 MOL     -0.818359
    191 H94         5.0170    0.0530    6.6090 ho        1 MOL      0.409005
    192 H95         5.5640    1.3040    5.9710 ho        1 MOL      0.409005
    193 O28         1.8920    1.0680    5.3170 oh        1 MOL     -0.818359
    194 H96         1.5730    0.7280    6.1490 ho        1 MOL      0.409005
    195 H97         1.8050    2.0130    5.3860 ho        1 MOL      0.409005
    196 O29         1.2350   -0.1240    2.5050 oh        1 MOL     -0.818359
    197 H98         0.9200   -0.5130    1.6890 ho        1 MOL      0.409005
    198 H99         0.4550   -0.1030    3.0740 ho        1 MOL      0.409005
@<TRIPOS>BOND
     1    1    2 1   
     2    1    4 1   
     3    1    5 1   
     4    1    6 1   
     5    2    3 2   
     6    2    7 1   
     7    7    8 1   
     8    7   15 1   
     9    8    9 1   
    10    8   11 1   
    11    8   16 1   
    12    9   10 2   
    13    9   19 1   
    14   11   12 1   
    15   11   17 1   
    16   11   18 1   
    17   12   13 1   
    18   12   14 1   
    19   19   20 1   
    20   19   28 1   
    21   20   21 1   
    22   20   23 1   
    23   20   29 1   
    24   21   22 2   
    25   21   41 1   
    26   23   24 1   
    27   23   30 1   
    28   23   31 1   
    29   24   25 1   
    30   24   32 1   
    31   24   33 1   
    32   25   26 1   
    33   25   34 1   
    34   25   35 1   
    35   26   27 1   
    36   26   36 1   
    37   26   37 1   
    38   27   38 1   
    39   27   39 1   
    40   27   40 1   
    41   41   42 1   
    42   41   49 1   
    43   42   43 1   
    44   42   45 1   
    45   42   50 1   
    46   43   44 2   
    47   43   53 1   
    48   45   46 1   
    49   45   51 1   
    50   45   52 1   
    51   46   47 1   
    52   46   48 1   
    53   53   54 1   
    54   53   57 1   
    55   54   55 1   
    56   54   58 1   
    57   54   59 1   
    58   55   56 2   
    59   55   60 1   
    60   60   61 1   
    61   60   68 1   
    62   61   62 1   
    63   61   64 1   
    64   61   69 1   
    65   62   63 2   
    66   62   72 1   
    67   64   65 1   
    68   64   70 1   
    69   64   71 1   
    70   65   66 1   
    71   65   67 1   
    72   72   73 1   
    73   72   76 1   
    74   73   74 1   
    75   73   77 1   
    76   73   78 1   
    77   74   75 2   
    78   74   79 1   
    79   79   80 1   
    80   79   86 1   
    81   80   81 1   
    82   80   83 1   
    83   80   87 1   
    84   81   82 2   
    85   81   93 1   
    86   83   84 1   
    87   83   85 1   
    88   83   88 1   
    89   84   90 1   
    90   84   91 1   
    91   84   92 1   
    92   85   89 1   
    93   93   94 1   
    94   93  101 1   
    95   94   95 1   
    96   94   97 1   
    97   94  102 1   
    98   95   96 2   
    99   95  112 1   
   100   97   98 1   
   101   97   99 1   
   102   97  103 1   
   103   98  100 1   
   104   98  104 1   
   105   98  105 1   
   106   99  106 1   
   107   99  107 1   
   108   99  108 1   
   109  100  109 1   
   110  100  110 1   
   111  100  111 1   
   112  112  113 1   
   113  112  119 1   
   114  113  114 1   
   115  113  116 1   
   116  113  120 1   
   117  114  115 2   
   118  114  126 1   
   119  116  117 1   
   120  116  118 1   
   121  116  121 1   
   122  117  123 1   
   123  117  124 1   
   124  117  125 1   
   125  118  122 1   
   126  126  127 1   
   127  126  133 1   
   128  127  128 1   
   129  127  130 1   
   130  127  134 1   
   131  128  129 2   
   132  128  140 1   
   133  130  131 1   
   134  130  132 1   
   135  130  135 1   
   136  131  137 1   
   137  131  138 1   
   138  131  139 1   
   139  132  136 1   
   140  140  141 1   
   141  140  149 1   
   142  141  142 1   
   143  141  144 1   
   144  141  150 1   
   145  142  143 2   
   146  142  162 1   
   147  144  145 1   
   148  144  151 1   
   149  144  152 1   
   150  145  146 1   
   151  145  153 1   
   152  145  154 1   
   153  146  147 1   
   154  146  155 1   
   155  146  156 1   
   156  147  148 1   
   157  147  157 1   
   158  147  158 1   
   159  148  159 1   
   160  148  160 1   
   161  148  161 1   
   162  162  163 1   
   163  162  171 1   
   164  163  164 1   
   165  163  166 1   
   166  163  172 1   
   167  164  165 2   
   168  164  177 1   
   169  166  167 1   
   170  166  173 1   
   171  166  174 1   
   172  167  168 1   
   173  167  175 1   
   174  167  176 1   
   175  168  169 1   
   176  168  170 1   
   177  177  178 1   
   178  177  182 1   
   179  178  179 1   
   180  178  180 1   
   181  178  181 1   
   182  184  185 1   
   183  184  186 1   
   184  187  188 1   
   185  187  189 1   
   186  190  191 1   
   187  190  192 1   
   188  193  194 1   
   189  193  195 1   
   190  196  197 1   
   191  196  198 1   
@<TRIPOS>SUBSTRUCTURE
     1 MOL         1 TEMP              0 ****  ****    0 ROOT
