@<TRIPOS>MOLECULE
MOL
  175   173     1     0     0
SMALL
resp


@<TRIPOS>ATOM
      1 C1         -6.3770    7.5840    1.5600 c3        1 MOL     -0.359445
      2 C2         -7.3020    6.6730    0.7180 c         1 MOL      0.778147
      3 O1         -7.3030    6.8110   -0.4890 o         1 MOL     -0.595525
      4 H1         -5.8350    8.2600    0.8990 hc        1 MOL      0.081627
      5 H2         -6.9770    8.1650    2.2610 hc        1 MOL      0.081627
      6 H3         -5.6650    6.9690    2.1110 hc        1 MOL      0.081627
      7 N1         -8.0070    5.7190    1.3440 n         1 MOL     -0.741000
      8 C3         -9.0530    4.8760    0.7330 c3        1 MOL      0.454709
      9 C4         -8.4800    3.5850    0.0740 c         1 MOL      0.513571
     10 O2         -8.9490    2.4950    0.3600 o         1 MOL     -0.540687
     11 C5        -10.2620    4.7030    1.6360 c3        1 MOL     -0.379570
     12 C6        -11.5830    4.3570    0.9160 c         1 MOL      0.744706
     13 O3        -11.6840    4.2190   -0.3200 o         1 MOL     -0.734623
     14 O4        -12.5670    4.2810    1.6800 o         1 MOL     -0.734623
     15 H4         -7.7160    5.4170    2.2550 hn        1 MOL      0.328149
     16 H5         -9.3230    5.3890   -0.1870 h1        1 MOL     -0.008276
     17 H6        -10.4660    5.6690    2.0940 hc        1 MOL      0.056545
     18 H7        -10.0550    4.0460    2.4850 hc        1 MOL      0.056545
     19 N2         -7.3250    3.6550   -0.6190 n         1 MOL     -0.659610
     20 C7         -6.5850    2.6670   -1.4490 c3        1 MOL      0.744631
     21 C8         -5.2190    2.2610   -0.8570 c         1 MOL      0.181357
     22 O5         -4.5830    3.1010   -0.1370 o         1 MOL     -0.498915
     23 C9         -6.5640    3.2440   -2.8990 c3        1 MOL     -0.265565
     24 H8         -6.8770    4.5610   -0.5980 hn        1 MOL      0.245226
     25 H9         -7.2280    1.7870   -1.5160 h1        1 MOL     -0.108045
     26 H10        -7.5550    3.6090   -3.1790 hc        1 MOL      0.054101
     27 H11        -5.8090    4.0210   -3.0100 hc        1 MOL      0.054101
     28 H12        -6.2420    2.4650   -3.5920 hc        1 MOL      0.054101
     29 N3         -4.5570    1.1430   -1.2200 n         1 MOL     -0.184467
     30 C10        -5.0120    0.0590   -2.0990 c3        1 MOL     -0.125752
     31 C11        -5.4040   -1.1660   -1.2410 c         1 MOL      0.519565
     32 O6         -4.6720   -1.4130   -0.2760 o         1 MOL     -0.540397
     33 C12        -3.9260   -0.1720   -3.1390 c3        1 MOL     -0.336531
     34 C13        -2.4530   -0.3010   -2.6420 c         1 MOL      0.852886
     35 O7         -1.8510   -1.3250   -2.8500 o         1 MOL     -0.755669
     36 O8         -1.8430    0.6080   -2.0180 o         1 MOL     -0.755669
     37 H13        -3.6650    1.0440   -0.7710 hn        1 MOL      0.275353
     38 H14        -5.9640    0.3040   -2.5650 h1        1 MOL      0.074998
     39 H15        -3.9050    0.6820   -3.8040 hc        1 MOL      0.087619
     40 H16        -4.1300   -1.0830   -3.7110 hc        1 MOL      0.087619
     41 N4         -6.4310   -1.8970   -1.7010 n         1 MOL     -0.405971
     42 C14        -6.9930   -3.1290   -1.0630 c3        1 MOL      0.053479
     43 C15        -6.6660   -4.3370   -1.9790 c         1 MOL      0.461111
     44 O9         -7.5310   -5.1220   -2.4630 o         1 MOL     -0.545331
     45 H17        -6.8000   -1.5410   -2.5700 hn        1 MOL      0.305815
     46 H18        -8.0730   -3.1420   -0.9580 h1        1 MOL      0.062048
     47 H19        -6.5250   -3.2800   -0.0920 h1        1 MOL      0.062048
     48 N5         -5.4030   -4.5820   -2.3250 n         1 MOL     -0.446188
     49 C16        -4.1440   -4.2360   -1.7130 c3        1 MOL     -0.003568
     50 C17        -4.0680   -4.8930   -0.2650 c         1 MOL      0.614252
     51 O10        -3.9520   -6.1080   -0.0730 o         1 MOL     -0.541172
     52 C18        -2.9880   -4.6040   -2.6070 c3        1 MOL     -0.004492
     53 C19        -1.6740   -4.2200   -1.9750 c         1 MOL      0.403211
     54 N6         -0.5730   -4.7390   -2.4280 n         1 MOL     -0.642398
     55 O11        -1.6830   -3.5910   -0.9400 o         1 MOL     -0.334522
     56 H20        -5.3320   -5.3090   -3.0260 hn        1 MOL      0.293088
     57 H21        -3.9960   -3.1550   -1.7690 h1        1 MOL      0.093816
     58 H22        -3.0900   -4.0650   -3.5490 hc        1 MOL      0.016462
     59 H23        -2.9540   -5.6730   -2.8230 hc        1 MOL      0.016462
     60 H24        -0.6390   -5.4100   -3.1780 hn        1 MOL      0.338322
     61 H25         0.2490   -4.3380   -1.9900 hn        1 MOL      0.338322
     62 N7         -4.2130   -4.0540    0.8040 n         1 MOL     -0.352936
     63 C20        -3.9780   -4.4860    2.2180 c3        1 MOL     -0.339274
     64 C21        -2.5830   -4.6820    2.7450 c         1 MOL      0.596507
     65 O12        -2.4350   -5.1940    3.8220 o         1 MOL     -0.574654
     66 H26        -4.3470   -3.0750    0.5960 hn        1 MOL      0.323299
     67 H27        -4.3950   -5.4770    2.3460 h1        1 MOL      0.145000
     68 H28        -4.4900   -3.7800    2.8700 h1        1 MOL      0.145000
     69 N8         -1.5800   -4.3500    1.9180 n         1 MOL     -0.177733
     70 C22        -0.1480   -4.5000    2.3940 c3        1 MOL     -0.052051
     71 C23         0.6870   -3.2400    2.2840 c         1 MOL      0.428270
     72 O13         0.4330   -2.3050    1.5480 o         1 MOL     -0.561016
     73 C24         0.5680   -5.7370    1.7300 c3        1 MOL      0.480907
     74 C25        -0.0410   -7.1060    2.0650 c3        1 MOL     -0.506967
     75 O14         0.6030   -5.7220    0.3200 oh        1 MOL     -0.610151
     76 H29        -1.7960   -3.9440    1.0250 hn        1 MOL      0.036315
     77 H30        -0.2520   -4.7220    3.4580 h1        1 MOL      0.047853
     78 H31         1.5970   -5.7180    2.0700 h1        1 MOL     -0.048238
     79 H32         0.7950   -4.8170    0.0660 ho        1 MOL      0.321370
     80 H33         0.1570   -7.3300    3.1130 hc        1 MOL      0.125960
     81 H34        -1.0670   -7.1820    1.7280 hc        1 MOL      0.125960
     82 H35         0.5270   -7.8220    1.4580 hc        1 MOL      0.125960
     83 N9          1.7210   -3.2180    3.0920 n         1 MOL     -0.322766
     84 C26         2.7820   -2.1620    3.1080 c3        1 MOL      0.257560
     85 C27         3.8930   -2.6120    2.1100 c         1 MOL      0.400592
     86 O15         4.6990   -3.4500    2.5220 o         1 MOL     -0.554396
     87 C28         3.2470   -2.0950    4.6050 c3        1 MOL      0.151435
     88 C29         4.5130   -1.1980    4.7230 c3        1 MOL     -0.044346
     89 C30         2.2530   -1.6590    5.6950 c3        1 MOL     -0.306621
     90 C31         4.4870    0.2540    4.2120 c3        1 MOL     -0.125424
     91 H36         1.9490   -4.0240    3.6500 hn        1 MOL      0.203268
     92 H37         2.4500   -1.1600    2.8370 h1        1 MOL     -0.017819
     93 H38         3.6520   -3.0750    4.8480 hc        1 MOL     -0.024623
     94 H39         5.3830   -1.7030    4.2790 hc        1 MOL      0.003680
     95 H40         4.6580   -1.1480    5.8000 hc        1 MOL      0.003680
     96 H41         2.4870   -2.0180    6.6950 hc        1 MOL      0.074018
     97 H42         2.1910   -0.5720    5.6750 hc        1 MOL      0.074018
     98 H43         1.2320   -2.0080    5.5230 hc        1 MOL      0.074018
     99 H44         4.4670    0.2870    3.1210 hc        1 MOL      0.032850
    100 H45         3.7530    0.9060    4.6970 hc        1 MOL      0.032850
    101 H46         5.4240    0.7730    4.4230 hc        1 MOL      0.032850
    102 N10         3.8090   -2.1600    0.8380 n         1 MOL     -0.182878
    103 C32         4.5630   -2.7890   -0.3050 c3        1 MOL      0.020732
    104 C33         5.3850   -1.7790   -1.1860 c         1 MOL      0.575534
    105 O16         5.6870   -1.9920   -2.3950 o         1 MOL     -0.521987
    106 C34         3.6570   -3.7680   -1.1040 c3        1 MOL     -0.165752
    107 C35         2.2670   -3.1690   -1.3790 c         1 MOL      0.768580
    108 O17         1.3270   -3.5530   -0.6580 o         1 MOL     -0.707027
    109 O18         2.0750   -2.2970   -2.2300 o         1 MOL     -0.707027
    110 H47         3.1080   -1.4860    0.5650 hn        1 MOL      0.156473
    111 H48         5.3200   -3.4740    0.0790 h1        1 MOL      0.065243
    112 H49         3.5780   -4.6470   -0.4740 hc        1 MOL      0.046507
    113 H50         4.0400   -3.9850   -2.1040 hc        1 MOL      0.046507
    114 N11         5.8880   -0.6830   -0.5300 n         1 MOL     -0.668696
    115 C36         6.9140    0.2910   -1.0590 c3        1 MOL      0.432889
    116 C37         6.6400    1.6930   -0.3810 c         1 MOL      0.361969
    117 O19         6.3090    1.8110    0.8450 o         1 MOL     -0.530693
    118 C38         8.3600   -0.1800   -0.8350 c3        1 MOL     -0.357052
    119 C39         9.4480    0.6600   -1.5160 ca        1 MOL      0.181891
    120 C40         9.9960    1.7050   -0.7110 ca        1 MOL     -0.220842
    121 C41         9.8790    0.3950   -2.8340 ca        1 MOL     -0.220842
    122 C42        11.0530    2.4500   -1.2630 ca        1 MOL     -0.084949
    123 C43        10.9170    1.2260   -3.3300 ca        1 MOL     -0.084949
    124 C44        11.4740    2.1860   -2.5910 ca        1 MOL     -0.125063
    125 H51         5.5360   -0.5280    0.4060 hn        1 MOL      0.308329
    126 H52         6.7530    0.3160   -2.1320 h1        1 MOL     -0.007661
    127 H53         8.4800   -1.2040   -1.1990 hc        1 MOL      0.114683
    128 H54         8.5840   -0.1970    0.2280 hc        1 MOL      0.114683
    129 H55         9.6260    1.9300    0.2780 ha        1 MOL      0.146873
    130 H56         9.4990   -0.4080   -3.4520 ha        1 MOL      0.146873
    131 H57        11.5640    3.2080   -0.7070 ha        1 MOL      0.101344
    132 H58        11.1810    1.1810   -4.3760 ha        1 MOL      0.101344
    133 H59        12.2100    2.7850   -3.1040 ha        1 MOL      0.095973
    134 N12         6.7500    2.8170   -1.1840 n         1 MOL     -0.052817
    135 C45         6.8630    4.1820   -0.6870 c3        1 MOL     -0.071080
    136 C46         5.5350    4.7930   -0.0760 c         1 MOL      0.612140
    137 O20         5.4710    6.0200    0.1260 o         1 MOL     -0.601751
    138 C47         7.4970    4.9980   -1.8280 c3        1 MOL     -0.013389
    139 C48         7.1260    4.1960   -3.0670 c3        1 MOL     -0.044418
    140 C49         6.9180    2.7660   -2.6220 c3        1 MOL     -0.051747
    141 H60         7.5850    4.1720    0.1230 h1        1 MOL      0.047618
    142 H61         7.0250    5.9850   -1.8680 hc        1 MOL      0.026393
    143 H62         8.5700    5.1400   -1.6780 hc        1 MOL      0.026393
    144 H63         6.1760    4.5240   -3.4870 hc        1 MOL      0.032479
    145 H64         7.9160    4.2520   -3.8220 hc        1 MOL      0.032479
    146 H65         6.0750    2.3660   -3.1770 h1        1 MOL      0.058702
    147 H66         7.7450    2.0720   -2.7580 h1        1 MOL      0.058702
    148 N13         4.5990    3.9930    0.1870 n         1 MOL     -0.415615
    149 C50         3.3570    4.3960    0.7940 c3        1 MOL     -0.035590
    150 C51         3.4230    4.6020    2.3750 c         1 MOL      0.477596
    151 O21         2.3560    4.6600    2.9660 o         1 MOL     -0.480378
    152 C52         2.3440    3.3300    0.3170 c3        1 MOL     -0.021280
    153 C53         2.4550    2.0290    1.1060 c3        1 MOL     -0.260848
    154 C54         1.6580    0.9790    0.3240 c         1 MOL      0.658760
    155 O22         2.2700    0.0740   -0.2460 o         1 MOL     -0.654350
    156 O23         0.4160    1.0000    0.3120 o         1 MOL     -0.654350
    157 H67         4.8210    3.0190    0.0740 hn        1 MOL      0.221089
    158 H68         3.0140    5.3650    0.4420 h1        1 MOL      0.111988
    159 H69         2.4100    3.1410   -0.7500 hc        1 MOL      0.055994
    160 H70         1.3930    3.8100    0.5430 hc        1 MOL      0.055994
    161 H71         2.0420    2.1400    2.1160 hc        1 MOL      0.088674
    162 H72         3.4910    1.6920    1.0690 hc        1 MOL      0.088674
    163 N14         4.5920    4.6380    2.9940 n         1 MOL     -0.345551
    164 C55         4.7850    5.2990    4.2910 c3        1 MOL     -0.009196
    165 H73         5.3380    6.2260    4.1470 h1        1 MOL      0.049582
    166 H74         3.8140    5.5200    4.7350 h1        1 MOL      0.049582
    167 H75         5.3460    4.6420    4.9550 h1        1 MOL      0.049582
    168 H76         5.3810    4.8110    2.3990 hn        1 MOL      0.254647
    169 Ca1         0.0350   -1.2290   -0.9860 Ca        1 MOL      1.658407
    170 O24        -2.1310   -0.8220    0.5210 oh        1 MOL     -0.800575
    171 H77        -1.9810   -0.6350    1.4590 ho        1 MOL      0.388397
    172 H78        -3.0590   -1.0450    0.4780 ho        1 MOL      0.388397
    173 O25         0.7830    0.8170   -2.8360 oh        1 MOL     -0.800575
    174 H79        -0.0190    1.2380   -3.1440 ho        1 MOL      0.388397
    175 H80         1.4160    1.5350   -2.7750 ho        1 MOL      0.388397
@<TRIPOS>BOND
     1    1    2 1   
     2    1    4 1   
     3    1    5 1   
     4    1    6 1   
     5    2    3 2   
     6    2    7 1   
     7    7    8 1   
     8    7   15 1   
     9    8    9 1   
    10    8   11 1   
    11    8   16 1   
    12    9   10 2   
    13    9   19 1   
    14   11   12 1   
    15   11   17 1   
    16   11   18 1   
    17   12   13 1   
    18   12   14 1   
    19   19   20 1   
    20   19   24 1   
    21   20   21 1   
    22   20   23 1   
    23   20   25 1   
    24   21   22 2   
    25   21   29 1   
    26   23   26 1   
    27   23   27 1   
    28   23   28 1   
    29   29   30 1   
    30   29   37 1   
    31   30   31 1   
    32   30   33 1   
    33   30   38 1   
    34   31   32 2   
    35   31   41 1   
    36   33   34 1   
    37   33   39 1   
    38   33   40 1   
    39   34   35 1   
    40   34   36 1   
    41   41   42 1   
    42   41   45 1   
    43   42   43 1   
    44   42   46 1   
    45   42   47 1   
    46   43   44 2   
    47   43   48 1   
    48   48   49 1   
    49   48   56 1   
    50   49   50 1   
    51   49   52 1   
    52   49   57 1   
    53   50   51 2   
    54   50   62 1   
    55   52   53 1   
    56   52   58 1   
    57   52   59 1   
    58   53   54 1   
    59   53   55 2   
    60   54   60 1   
    61   54   61 1   
    62   62   63 1   
    63   62   66 1   
    64   63   64 1   
    65   63   67 1   
    66   63   68 1   
    67   64   65 2   
    68   64   69 1   
    69   69   70 1   
    70   69   76 1   
    71   70   71 1   
    72   70   73 1   
    73   70   77 1   
    74   71   72 2   
    75   71   83 1   
    76   73   74 1   
    77   73   75 1   
    78   73   78 1   
    79   74   80 1   
    80   74   81 1   
    81   74   82 1   
    82   75   79 1   
    83   83   84 1   
    84   83   91 1   
    85   84   85 1   
    86   84   87 1   
    87   84   92 1   
    88   85   86 2   
    89   85  102 1   
    90   87   88 1   
    91   87   89 1   
    92   87   93 1   
    93   88   90 1   
    94   88   94 1   
    95   88   95 1   
    96   89   96 1   
    97   89   97 1   
    98   89   98 1   
    99   90   99 1   
   100   90  100 1   
   101   90  101 1   
   102  102  103 1   
   103  102  110 1   
   104  103  104 1   
   105  103  106 1   
   106  103  111 1   
   107  104  105 2   
   108  104  114 1   
   109  106  107 1   
   110  106  112 1   
   111  106  113 1   
   112  107  108 1   
   113  107  109 1   
   114  114  115 1   
   115  114  125 1   
   116  115  116 1   
   117  115  118 1   
   118  115  126 1   
   119  116  117 2   
   120  116  134 1   
   121  118  119 1   
   122  118  127 1   
   123  118  128 1   
   124  119  120 ar  
   125  119  121 ar  
   126  120  122 ar  
   127  120  129 1   
   128  121  123 ar  
   129  121  130 1   
   130  122  124 ar  
   131  122  131 1   
   132  123  124 ar  
   133  123  132 1   
   134  124  133 1   
   135  134  135 1   
   136  134  140 1   
   137  135  136 1   
   138  135  138 1   
   139  135  141 1   
   140  136  137 2   
   141  136  148 1   
   142  138  139 1   
   143  138  142 1   
   144  138  143 1   
   145  139  140 1   
   146  139  144 1   
   147  139  145 1   
   148  140  146 1   
   149  140  147 1   
   150  148  149 1   
   151  148  157 1   
   152  149  150 1   
   153  149  152 1   
   154  149  158 1   
   155  150  151 2   
   156  150  163 1   
   157  152  153 1   
   158  152  159 1   
   159  152  160 1   
   160  153  154 1   
   161  153  161 1   
   162  153  162 1   
   163  154  155 1   
   164  154  156 1   
   165  163  164 1   
   166  163  168 1   
   167  164  165 1   
   168  164  166 1   
   169  164  167 1   
   170  170  171 1   
   171  170  172 1   
   172  173  174 1   
   173  173  175 1   
@<TRIPOS>SUBSTRUCTURE
     1 MOL         1 TEMP              0 ****  ****    0 ROOT
