@<TRIPOS>MOLECULE
MOL
  198   191     1     0     0
SMALL
resp


@<TRIPOS>ATOM
      1 C1          2.2970    3.3920    1.3530 c3        1 MOL     -0.224873
      2 C2          1.2280    4.0490    0.4420 c         1 MOL      0.689764
      3 O1          0.3310    3.3570    0.0860 o         1 MOL     -0.540465
      4 H1          3.2030    3.9990    1.3460 hc        1 MOL      0.021503
      5 H2          1.9150    3.3230    2.3720 hc        1 MOL      0.021503
      6 H3          2.5270    2.3940    0.9810 hc        1 MOL      0.021503
      7 N1          1.3340    5.3180    0.0660 n         1 MOL     -0.629864
      8 C3          0.3790    6.1390   -0.7770 c3        1 MOL      0.159399
      9 C4         -1.0450    5.6890   -0.4960 c         1 MOL      0.748268
     10 O2         -1.6820    5.1050   -1.3560 o         1 MOL     -0.462757
     11 C5          0.7180    5.9460   -2.2540 c3        1 MOL     -0.349525
     12 C6         -0.2180    6.6840   -3.2210 c         1 MOL      0.661331
     13 O3         -0.7890    7.7010   -2.7610 o         1 MOL     -0.601379
     14 O4         -0.3820    6.2910   -4.3990 o         1 MOL     -0.601379
     15 H4          2.1800    5.7880    0.3700 hn        1 MOL      0.309908
     16 H5          0.4530    7.1510   -0.3870 h1        1 MOL      0.029085
     17 H6          0.8040    4.9020   -2.5480 hc        1 MOL      0.097492
     18 H7          1.7150    6.3320   -2.4410 hc        1 MOL      0.097492
     19 N2         -1.5490    6.0700    0.7040 n         1 MOL     -0.683506
     20 C7         -2.9260    5.8840    1.2390 c3        1 MOL     -0.100548
     21 C8         -3.9490    6.7450    0.4780 c         1 MOL      0.617269
     22 O5         -3.5860    7.7500   -0.0800 o         1 MOL     -0.516618
     23 C9         -3.0040    6.0760    2.7660 c3        1 MOL      0.209249
     24 C10        -2.6020    7.4040    3.3490 c3        1 MOL      0.083744
     25 C11        -2.3570    4.7850    3.3640 c3        1 MOL     -0.573001
     26 C12        -3.0100    7.4920    4.7900 c3        1 MOL     -0.138246
     27 H8         -1.0360    6.7160    1.2880 hn        1 MOL      0.286571
     28 H9         -3.1310    4.8280    1.0640 h1        1 MOL      0.194427
     29 H10        -4.0330    5.9870    3.0860 hc        1 MOL      0.050281
     30 H11        -3.0630    8.2800    2.8940 hc        1 MOL     -0.005516
     31 H12        -1.5240    7.4960    3.2820 hc        1 MOL     -0.005516
     32 H13        -2.7760    3.9220    2.8460 hc        1 MOL      0.140876
     33 H14        -1.2810    4.6510    3.2240 hc        1 MOL      0.140876
     34 H15        -2.4950    4.8340    4.4410 hc        1 MOL      0.140876
     35 H16        -2.8700    8.5180    5.1570 hc        1 MOL      0.016624
     36 H17        -4.0500    7.2560    4.9930 hc        1 MOL      0.016624
     37 H18        -2.4770    6.8070    5.4390 hc        1 MOL      0.016624
     38 N3         -5.2580    6.3000    0.3530 n         1 MOL     -0.684449
     39 C13        -5.8360    4.9790    0.4620 c3        1 MOL      0.199406
     40 C14        -6.8670    4.8040   -0.6720 c         1 MOL      0.575546
     41 O6         -8.0390    5.1160   -0.5830 o         1 MOL     -0.528790
     42 C15        -6.5990    4.8380    1.7710 c3        1 MOL     -0.276143
     43 C16        -7.2270    3.4970    1.9430 c         1 MOL      0.767215
     44 O7         -8.0920    3.2850    2.8130 o         1 MOL     -0.642997
     45 O8         -6.9330    2.6090    1.1240 o         1 MOL     -0.642997
     46 H19        -5.7940    6.8920   -0.2690 hn        1 MOL      0.305329
     47 H20        -5.1050    4.1780    0.3630 h1        1 MOL      0.003967
     48 H21        -7.3300    5.6310    1.9490 hc        1 MOL      0.056221
     49 H22        -5.7690    4.9280    2.4640 hc        1 MOL      0.056221
     50 N4         -6.4070    4.1200   -1.7190 n         1 MOL     -0.372003
     51 C17        -7.2720    3.6950   -2.8240 c3        1 MOL     -0.073282
     52 C18        -7.8140    2.2820   -2.6270 c         1 MOL      0.607660
     53 O9         -8.9510    2.1030   -2.2190 o         1 MOL     -0.525282
     54 H23        -5.4390    3.8830   -1.7020 hn        1 MOL      0.281582
     55 H24        -6.6570    3.6600   -3.7290 h1        1 MOL      0.052125
     56 H25        -8.1310    4.3440   -2.9850 h1        1 MOL      0.052125
     57 N5         -6.9780    1.3180   -3.0150 n         1 MOL     -0.543158
     58 C19        -7.2010   -0.1840   -3.2680 c3        1 MOL      0.095441
     59 C20        -7.7670   -0.9410   -2.0900 c         1 MOL      0.352050
     60 O10        -8.6370   -1.8250   -2.2130 o         1 MOL     -0.574381
     61 C21        -5.9120   -0.9610   -3.6180 c3        1 MOL     -0.292303
     62 C22        -4.7880   -0.8110   -2.5150 c         1 MOL      0.665638
     63 O11        -4.0320    0.2390   -2.4350 o         1 MOL     -0.679651
     64 O12        -4.7350   -1.7120   -1.6520 o         1 MOL     -0.679651
     65 H26        -6.1050    1.6420   -3.3900 hn        1 MOL      0.304218
     66 H27        -7.8260   -0.4090   -4.1360 h1        1 MOL      0.050265
     67 H28        -5.4300   -0.5460   -4.5080 hc        1 MOL      0.070573
     68 H29        -6.1540   -1.9830   -3.8900 hc        1 MOL      0.070573
     69 N6         -7.4340   -0.5490   -0.8630 n         1 MOL      0.038455
     70 C23        -7.9670   -1.2350    0.3510 c3        1 MOL     -0.310703
     71 C24        -7.5380   -2.6990    0.5830 c         1 MOL      0.729759
     72 O13        -7.9900   -3.2940    1.5620 o         1 MOL     -0.619966
     73 H30        -6.7660    0.2040   -0.7320 hn        1 MOL      0.215780
     74 H31        -9.0510   -1.2600    0.2850 h1        1 MOL      0.127590
     75 H32        -7.7300   -0.7130    1.2800 h1        1 MOL      0.127590
     76 N7         -6.6760   -3.2800   -0.2810 n         1 MOL     -0.538102
     77 C25        -6.1810   -4.6500   -0.3110 c3        1 MOL      0.058151
     78 C26        -5.6270   -5.2730    1.0410 c         1 MOL      0.391627
     79 O14        -5.4540   -6.4880    1.1840 o         1 MOL     -0.505610
     80 C27        -7.1580   -5.6910   -0.9600 c3        1 MOL      0.313447
     81 C28        -7.6430   -5.1690   -2.3020 c3        1 MOL     -0.375831
     82 C29        -6.7740   -5.5760   -3.4710 c         1 MOL      0.584555
     83 N8         -6.9060   -5.0470   -4.6600 n         1 MOL     -0.709371
     84 O15        -5.9080   -6.4770   -3.5130 o         1 MOL     -0.547361
     85 H33        -6.4460   -2.8050   -1.1400 hn        1 MOL      0.281234
     86 H34        -5.3270   -4.6090   -0.9760 h1        1 MOL      0.100114
     87 H35        -8.0380   -5.8580   -0.3400 hc        1 MOL     -0.060199
     88 H36        -6.6450   -6.6540   -1.0550 hc        1 MOL     -0.060199
     89 H37        -7.7190   -4.0800   -2.3930 hc        1 MOL      0.114859
     90 H38        -8.6910   -5.4670   -2.4330 hc        1 MOL      0.114859
     91 H39        -7.5770   -4.3160   -4.8410 hn        1 MOL      0.326020
     92 H40        -6.3800   -5.4880   -5.4020 hn        1 MOL      0.326020
     93 N9         -5.1710   -4.4510    2.0020 n         1 MOL     -0.278927
     94 C30        -4.5200   -4.8130    3.2320 c3        1 MOL     -0.078082
     95 C31        -3.0780   -4.3790    3.4380 c         1 MOL      0.624278
     96 O16        -2.4620   -4.8430    4.4090 o         1 MOL     -0.602145
     97 C32        -5.4350   -4.2870    4.3550 c3        1 MOL      0.213836
     98 C33        -5.6570   -2.6940    4.3250 c3        1 MOL     -0.359358
     99 C34        -6.7960   -4.9560    4.3370 c3        1 MOL     -0.359358
    100 H41        -5.3740   -3.4650    1.8980 hn        1 MOL      0.257584
    101 H42        -4.4330   -5.8900    3.3520 h1        1 MOL      0.102495
    102 H43        -5.0750   -4.4550    5.3760 hc        1 MOL     -0.008909
    103 H44        -4.7250   -2.1260    4.3660 hc        1 MOL      0.090189
    104 H45        -6.1600   -2.3080    3.4330 hc        1 MOL      0.090189
    105 H46        -6.2540   -2.4170    5.1950 hc        1 MOL      0.090189
    106 H47        -6.6230   -6.0170    4.1650 hc        1 MOL      0.090189
    107 H48        -7.1850   -4.7970    5.3380 hc        1 MOL      0.090189
    108 H49        -7.4660   -4.5930    3.5590 hc        1 MOL      0.090189
    109 N10        -2.5020   -3.5370    2.5540 n         1 MOL     -0.559567
    110 C35        -1.1660   -2.8850    2.6810 c3        1 MOL      0.369617
    111 C36        -0.4950   -2.5950    1.3160 c         1 MOL      0.421827
    112 O17        -1.2070   -2.4720    0.3530 o         1 MOL     -0.463210
    113 C37        -1.2780   -1.6050    3.5180 c3        1 MOL     -0.247072
    114 C38        -0.0000   -0.7670    3.5760 c         1 MOL      0.644609
    115 N11         0.0940    0.4000    3.0390 n         1 MOL     -0.795042
    116 O18         0.9670   -1.1700    4.1380 o         1 MOL     -0.591938
    117 H50        -3.0870   -3.0470    1.8940 hn        1 MOL      0.262472
    118 H51        -0.4990   -3.4670    3.3070 h1        1 MOL      0.001291
    119 H52        -1.5040   -1.7820    4.5700 hc        1 MOL      0.071564
    120 H53        -2.0680   -0.9930    3.1030 hc        1 MOL      0.071564
    121 H54        -0.6790    0.9050    2.6250 hn        1 MOL      0.376146
    122 H55         0.9670    0.8790    3.1530 hn        1 MOL      0.376146
    123 N12         0.8060   -2.6390    1.2970 n         1 MOL     -0.552168
    124 C39         1.5750   -2.4060    0.0820 c3        1 MOL      0.196746
    125 C40         2.9420   -3.1580    0.1670 c         1 MOL      0.591963
    126 O19         3.6880   -2.8790    1.1050 o         1 MOL     -0.552834
    127 C41         1.8390   -0.8690   -0.0560 c3        1 MOL     -0.027507
    128 C42         2.5750   -0.4990   -1.3660 ca        1 MOL     -0.120512
    129 C43         3.7470    0.2430   -1.3020 ca        1 MOL      0.014337
    130 C44         2.0660   -0.9020   -2.6340 ca        1 MOL      0.014337
    131 C45         4.5240    0.4900   -2.4290 ca        1 MOL     -0.334923
    132 C46         2.9120   -0.8150   -3.7470 ca        1 MOL     -0.334923
    133 C47         4.1200   -0.1000   -3.6640 ca        1 MOL      0.363323
    134 O20         4.9880   -0.0240   -4.7810 oh        1 MOL     -0.470165
    135 H56         1.3260   -2.7830    2.1540 hn        1 MOL      0.304169
    136 H57         1.0390   -2.7460   -0.8030 h1        1 MOL      0.072300
    137 H58         2.4400   -0.5190    0.7850 hc        1 MOL      0.080385
    138 H59         0.9080   -0.3060   -0.0830 hc        1 MOL      0.080385
    139 H60         4.1130    0.5110   -0.3180 ha        1 MOL      0.102694
    140 H61         1.2080   -1.5520   -2.6780 ha        1 MOL      0.102694
    141 H62         5.5110    0.9230   -2.3680 ha        1 MOL      0.153359
    142 H63         2.6770   -1.3390   -4.6620 ha        1 MOL      0.153359
    143 H64         5.7750    0.4000   -4.4330 ho        1 MOL      0.313222
    144 N13         3.2810   -4.1100   -0.7050 n         1 MOL     -0.657002
    145 C48         4.4590   -4.9150   -0.5590 c3        1 MOL      0.282421
    146 C49         5.6190   -4.6200   -1.5730 c         1 MOL      0.508726
    147 O21         5.7120   -5.1740   -2.6990 o         1 MOL     -0.511858
    148 C50         4.1250   -6.3930   -0.5970 c3        1 MOL      0.071379
    149 C51         5.1460   -7.5110   -0.1320 c3        1 MOL     -0.213135
    150 C52         6.3390   -7.6650   -1.0520 c         1 MOL      0.686559
    151 O22         6.1470   -8.1120   -2.1920 o         1 MOL     -0.610393
    152 O23         7.4720   -7.3360   -0.6740 o         1 MOL     -0.610393
    153 H65         2.7290   -4.3580   -1.5070 hn        1 MOL      0.319420
    154 H66         4.8530   -4.7400    0.4420 h1        1 MOL      0.035711
    155 H67         3.7780   -6.6690   -1.5990 hc        1 MOL     -0.016646
    156 H68         3.2350   -6.4970    0.0270 hc        1 MOL     -0.016646
    157 H69         4.7120   -8.5000    0.0120 hc        1 MOL      0.028048
    158 H70         5.4570   -7.1560    0.8520 hc        1 MOL      0.028048
    159 N14         6.4910   -3.6270   -1.3670 n         1 MOL     -0.506338
    160 C53         6.4950   -2.6020   -0.2420 c3        1 MOL      0.013728
    161 C54         6.8550   -3.3450    1.0240 c         1 MOL      0.557712
    162 O24         7.7210   -4.2190    1.1100 o         1 MOL     -0.538858
    163 C55         7.5240   -1.5470   -0.4450 c3        1 MOL      0.129907
    164 C56         7.2470   -0.2160    0.2710 c3        1 MOL     -0.554699
    165 C57         8.1550    0.7780   -0.4390 c         1 MOL      0.233781
    166 O25         9.3400    0.9530   -0.0870 o         1 MOL     -0.371903
    167 O26         7.8170    1.3020   -1.5630 o         1 MOL     -0.371903
    168 H71         7.1300   -3.3840   -2.1120 hn        1 MOL      0.301739
    169 H72         5.5030   -2.1410   -0.2330 h1        1 MOL      0.026825
    170 H73         7.4990   -1.2680   -1.4960 hc        1 MOL      0.040698
    171 H74         8.5040   -1.9010   -0.1370 hc        1 MOL      0.040698
    172 H75         7.4810   -0.2130    1.3310 hc        1 MOL      0.104232
    173 H76         6.2120    0.1130    0.2490 hc        1 MOL      0.104232
    174 N15         6.2250   -2.8260    2.1270 n         1 MOL     -0.156004
    175 C58         6.3110   -3.3630    3.5170 c3        1 MOL     -0.491461
    176 H77         5.7720   -4.3090    3.5740 h1        1 MOL      0.155796
    177 H78         7.3560   -3.5250    3.7810 h1        1 MOL      0.155796
    178 H79         5.8670   -2.6500    4.2100 h1        1 MOL      0.155796
    179 H80         5.4720   -2.1750    1.9160 hn        1 MOL      0.217195
    180 Ca1        10.8520    2.9450    0.5410 Ca        1 MOL      1.352526
    181 O27        11.5730    2.1370   -1.9470 oh        1 MOL     -0.723596
    182 H81        11.8880    2.6990   -2.6590 ho        1 MOL      0.313731
    183 H82        12.2530    1.4690   -1.8590 ho        1 MOL      0.313731
    184 O28        11.7160    1.2380    2.6030 oh        1 MOL     -0.723596
    185 H83        12.6150    1.0180    2.8290 ho        1 MOL      0.313731
    186 H84        11.1980    0.4880    2.8850 ho        1 MOL      0.313731
    187 O29        11.4490    5.1140   -0.9440 oh        1 MOL     -0.723596
    188 H85        10.8160    5.8050   -1.1220 ho        1 MOL      0.313731
    189 H86        12.2890    5.5820   -0.8700 ho        1 MOL      0.313731
    190 O30        13.3100    1.8410    0.2230 oh        1 MOL     -0.723596
    191 H87        14.0720    1.8220    0.7850 ho        1 MOL      0.313731
    192 H88        13.3720    1.0310   -0.2960 ho        1 MOL      0.313731
    193 O31         8.6630    3.8330   -0.8230 oh        1 MOL     -0.723596
    194 H89         8.2450    2.9660   -0.8130 ho        1 MOL      0.313731
    195 H90         7.9540    4.4440   -0.6270 ho        1 MOL      0.313731
    196 O32        12.3010    4.6430    2.2300 oh        1 MOL     -0.723596
    197 H91        11.7920    5.1030    2.8850 ho        1 MOL      0.313731
    198 H92        13.1980    4.9750    2.3380 ho        1 MOL      0.313731
@<TRIPOS>BOND
     1    1    2 1   
     2    1    4 1   
     3    1    5 1   
     4    1    6 1   
     5    2    3 2   
     6    2    7 1   
     7    7    8 1   
     8    7   15 1   
     9    8    9 1   
    10    8   11 1   
    11    8   16 1   
    12    9   10 2   
    13    9   19 1   
    14   11   12 1   
    15   11   17 1   
    16   11   18 1   
    17   12   13 1   
    18   12   14 1   
    19   19   20 1   
    20   19   27 1   
    21   20   21 1   
    22   20   23 1   
    23   20   28 1   
    24   21   22 2   
    25   21   38 1   
    26   23   24 1   
    27   23   25 1   
    28   23   29 1   
    29   24   26 1   
    30   24   30 1   
    31   24   31 1   
    32   25   32 1   
    33   25   33 1   
    34   25   34 1   
    35   26   35 1   
    36   26   36 1   
    37   26   37 1   
    38   38   39 1   
    39   38   46 1   
    40   39   40 1   
    41   39   42 1   
    42   39   47 1   
    43   40   41 2   
    44   40   50 1   
    45   42   43 1   
    46   42   48 1   
    47   42   49 1   
    48   43   44 1   
    49   43   45 1   
    50   50   51 1   
    51   50   54 1   
    52   51   52 1   
    53   51   55 1   
    54   51   56 1   
    55   52   53 2   
    56   52   57 1   
    57   57   58 1   
    58   57   65 1   
    59   58   59 1   
    60   58   61 1   
    61   58   66 1   
    62   59   60 2   
    63   59   69 1   
    64   61   62 1   
    65   61   67 1   
    66   61   68 1   
    67   62   63 1   
    68   62   64 1   
    69   69   70 1   
    70   69   73 1   
    71   70   71 1   
    72   70   74 1   
    73   70   75 1   
    74   71   72 2   
    75   71   76 1   
    76   76   77 1   
    77   76   85 1   
    78   77   78 1   
    79   77   80 1   
    80   77   86 1   
    81   78   79 2   
    82   78   93 1   
    83   80   81 1   
    84   80   87 1   
    85   80   88 1   
    86   81   82 1   
    87   81   89 1   
    88   81   90 1   
    89   82   83 1   
    90   82   84 2   
    91   83   91 1   
    92   83   92 1   
    93   93   94 1   
    94   93  100 1   
    95   94   95 1   
    96   94   97 1   
    97   94  101 1   
    98   95   96 2   
    99   95  109 1   
   100   97   98 1   
   101   97   99 1   
   102   97  102 1   
   103   98  103 1   
   104   98  104 1   
   105   98  105 1   
   106   99  106 1   
   107   99  107 1   
   108   99  108 1   
   109  109  110 1   
   110  109  117 1   
   111  110  111 1   
   112  110  113 1   
   113  110  118 1   
   114  111  112 2   
   115  111  123 1   
   116  113  114 1   
   117  113  119 1   
   118  113  120 1   
   119  114  115 1   
   120  114  116 2   
   121  115  121 1   
   122  115  122 1   
   123  123  124 1   
   124  123  135 1   
   125  124  125 1   
   126  124  127 1   
   127  124  136 1   
   128  125  126 2   
   129  125  144 1   
   130  127  128 1   
   131  127  137 1   
   132  127  138 1   
   133  128  129 ar  
   134  128  130 ar  
   135  129  131 ar  
   136  129  139 1   
   137  130  132 ar  
   138  130  140 1   
   139  131  133 ar  
   140  131  141 1   
   141  132  133 ar  
   142  132  142 1   
   143  133  134 1   
   144  134  143 1   
   145  144  145 1   
   146  144  153 1   
   147  145  146 1   
   148  145  148 1   
   149  145  154 1   
   150  146  147 2   
   151  146  159 1   
   152  148  149 1   
   153  148  155 1   
   154  148  156 1   
   155  149  150 1   
   156  149  157 1   
   157  149  158 1   
   158  150  151 1   
   159  150  152 1   
   160  159  160 1   
   161  159  168 1   
   162  160  161 1   
   163  160  163 1   
   164  160  169 1   
   165  161  162 2   
   166  161  174 1   
   167  163  164 1   
   168  163  170 1   
   169  163  171 1   
   170  164  165 1   
   171  164  172 1   
   172  164  173 1   
   173  165  166 1   
   174  165  167 1   
   175  174  175 1   
   176  174  179 1   
   177  175  176 1   
   178  175  177 1   
   179  175  178 1   
   180  181  182 1   
   181  181  183 1   
   182  184  185 1   
   183  184  186 1   
   184  187  188 1   
   185  187  189 1   
   186  190  191 1   
   187  190  192 1   
   188  193  194 1   
   189  193  195 1   
   190  196  197 1   
   191  196  198 1   
@<TRIPOS>SUBSTRUCTURE
     1 MOL         1 TEMP              0 ****  ****    0 ROOT
