@<TRIPOS>MOLECULE
MOL
  194   186     1     0     0
SMALL
resp


@<TRIPOS>ATOM
      1 C1         -4.3050    1.2290   -3.0770 c3        1 MOL     -0.667091
      2 C2         -4.7710    1.8210   -1.7630 c         1 MOL      0.604039
      3 O1         -4.2070    1.6360   -0.7260 o         1 MOL     -0.430022
      4 H1         -4.5270    0.1620   -3.0930 hc        1 MOL      0.173605
      5 H2         -4.8230    1.7190   -3.9010 hc        1 MOL      0.173605
      6 H3         -3.2310    1.3770   -3.1820 hc        1 MOL      0.173605
      7 N1         -5.9790    2.4310   -1.8900 n         1 MOL     -0.541238
      8 C3         -6.7730    2.8310   -0.6850 c3        1 MOL     -0.072894
      9 C4         -6.9110    1.6330    0.3010 c         1 MOL      0.602680
     10 O2         -6.5160    1.6780    1.4950 o         1 MOL     -0.501998
     11 C5         -6.2420    4.1430   -0.0320 c3        1 MOL     -0.065959
     12 C6         -5.9570    5.3710   -0.9730 c         1 MOL      0.622684
     13 O3         -5.8710    5.3380   -2.2420 o         1 MOL     -0.612137
     14 O4         -5.8100    6.4180   -0.3120 o         1 MOL     -0.612137
     15 H4         -6.3040    2.4990   -2.8400 hn        1 MOL      0.329401
     16 H5         -7.7630    3.0400   -1.0690 h1        1 MOL      0.091193
     17 H6         -5.3400    3.7540    0.4460 hc        1 MOL      0.034360
     18 H7         -6.9890    4.3510    0.7400 hc        1 MOL      0.034360
     19 N2         -7.3610    0.4800   -0.1990 n         1 MOL     -0.580463
     20 C7         -7.5530   -0.7620    0.5640 c3        1 MOL      0.042551
     21 C8         -6.3640   -1.6880    0.7990 c         1 MOL      0.499855
     22 O5         -6.5280   -2.8200    1.1760 o         1 MOL     -0.559818
     23 C9         -8.7820   -1.4850   -0.0700 c3        1 MOL     -0.054624
     24 C10        -8.3760   -2.0420   -1.4850 c3        1 MOL      0.057351
     25 C11        -9.4820   -2.8980   -2.1160 c3        1 MOL     -0.138174
     26 C12        -9.5740   -4.1790   -1.3600 c3        1 MOL      0.059552
     27 N3        -10.7150   -5.0080   -1.7810 n4        1 MOL     -0.285000
     28 H8         -7.5480    0.4130   -1.1900 hn        1 MOL      0.276576
     29 H9         -7.8420   -0.4180    1.5560 h1        1 MOL      0.133680
     30 H10        -9.6840   -0.8820    0.0380 hc        1 MOL      0.041016
     31 H11        -8.9720   -2.3370    0.5780 hc        1 MOL      0.041016
     32 H12        -7.4720   -2.6390   -1.3490 hc        1 MOL      0.027922
     33 H13        -8.0070   -1.2690   -2.1580 hc        1 MOL      0.027922
     34 H14        -9.1870   -3.1390   -3.1380 hc        1 MOL      0.050791
     35 H15       -10.3670   -2.2600   -2.1240 hc        1 MOL      0.050791
     36 H16        -9.6910   -3.9390   -0.2960 hx        1 MOL      0.080027
     37 H17        -8.5910   -4.6320   -1.2870 hx        1 MOL      0.080027
     38 H18       -11.6110   -4.5650   -1.6620 hn        1 MOL      0.256463
     39 H19       -10.6120   -5.1650   -2.7750 hn        1 MOL      0.256463
     40 H20       -10.7130   -5.9300   -1.3660 hn        1 MOL      0.256463
     41 N4         -5.1120   -1.3100    0.4350 n         1 MOL     -0.431202
     42 C13        -3.9540   -2.2310    0.6200 c3        1 MOL      0.031491
     43 C14        -3.6570   -2.3850    2.1450 c         1 MOL      0.615346
     44 O6         -3.8620   -1.4060    2.8650 o         1 MOL     -0.444153
     45 C15        -2.8140   -1.7970   -0.2890 c3        1 MOL     -0.014652
     46 C16        -1.7030   -2.8620   -0.3590 c         1 MOL      0.756376
     47 O7         -0.9060   -3.1910    0.5450 o         1 MOL     -0.790398
     48 O8         -1.6030   -3.4910   -1.4230 o         1 MOL     -0.790398
     49 H21        -5.0280   -0.3900    0.0250 hn        1 MOL      0.279395
     50 H22        -4.3340   -3.2050    0.3330 h1        1 MOL      0.011069
     51 H23        -2.4670   -0.8370    0.1010 hc        1 MOL      0.031923
     52 H24        -3.2060   -1.6800   -1.2940 hc        1 MOL      0.031923
     53 N5         -3.0890   -3.4390    2.6340 n         1 MOL     -0.560387
     54 C17        -2.4840   -3.4410    3.9700 c3        1 MOL     -0.198220
     55 C18        -1.3390   -2.5190    4.2950 c         1 MOL      0.480616
     56 O9         -1.1110   -2.1530    5.4130 o         1 MOL     -0.515532
     57 H25        -2.8480   -4.1840    1.9980 hn        1 MOL      0.358571
     58 H26        -2.1770   -4.4900    4.0220 h1        1 MOL      0.130542
     59 H27        -3.2370   -3.1820    4.7160 h1        1 MOL      0.130542
     60 N6         -0.6340   -2.0440    3.2640 n         1 MOL     -0.289922
     61 C19         0.2640   -0.8680    3.3270 c3        1 MOL     -0.102118
     62 C20        -0.4820    0.4520    3.3970 c         1 MOL      0.503607
     63 O10         0.2460    1.4240    3.4650 o         1 MOL     -0.508531
     64 C21         1.2170   -0.8830    2.1020 c3        1 MOL     -0.532453
     65 C22         2.2050   -2.0860    2.2250 c         1 MOL      0.900452
     66 N7          1.9010   -3.2230    1.6810 n         1 MOL     -0.998764
     67 O11         3.3550   -1.9370    2.5710 o         1 MOL     -0.608612
     68 H28        -0.8140   -2.4010    2.3360 hn        1 MOL      0.257034
     69 H29         0.8630   -0.8600    4.2350 h1        1 MOL      0.152781
     70 H30         1.8350    0.0110    2.1400 hc        1 MOL      0.184888
     71 H31         0.6990   -0.9000    1.1440 hc        1 MOL      0.184888
     72 H32         0.9760   -3.2730    1.2710 hn        1 MOL      0.412948
     73 H33         2.5750   -3.9630    1.5820 hn        1 MOL      0.412948
     74 N8         -1.8160    0.5150    3.3730 n         1 MOL     -0.162226
     75 C23        -2.5990    1.7370    3.4240 c3        1 MOL     -0.118455
     76 C24        -2.1820    2.9030    2.5810 c         1 MOL      0.524556
     77 O12        -1.9310    3.9770    3.1510 o         1 MOL     -0.528637
     78 H34        -2.2520   -0.3880    3.2060 hn        1 MOL      0.136433
     79 H35        -2.5610    1.9930    4.4850 h1        1 MOL      0.076134
     80 H36        -3.5690    1.3880    3.0770 h1        1 MOL      0.076134
     81 N9         -2.1320    2.7180    1.2540 n         1 MOL     -0.225192
     82 C25        -1.3120    3.5710    0.4360 c3        1 MOL     -0.404089
     83 C26        -0.2710    2.7970   -0.3570 c         1 MOL      0.931666
     84 O13        -0.4360    1.5820   -0.6180 o         1 MOL     -0.646874
     85 C27        -2.4010    4.4230   -0.4180 c3        1 MOL     -0.036163
     86 C28        -1.8450    5.7350   -0.9360 ca        1 MOL      0.234041
     87 C29        -1.4520    6.6320    0.0740 ca        1 MOL     -0.340236
     88 C30        -1.9850    6.1170   -2.2260 ca        1 MOL     -0.340236
     89 C31        -1.1490    7.9960   -0.2970 ca        1 MOL     -0.008721
     90 C32        -1.6070    7.4240   -2.6090 ca        1 MOL     -0.008721
     91 C33        -1.1460    8.3800   -1.6580 ca        1 MOL      0.048668
     92 O14        -1.0000    9.6700   -1.9920 oh        1 MOL     -0.419102
     93 H37        -2.4210    1.8740    0.7940 hn        1 MOL      0.214529
     94 H38        -0.8320    4.2920    1.1090 h1        1 MOL      0.151976
     95 H39        -3.2740    4.6240    0.2000 hc        1 MOL      0.116062
     96 H40        -2.6800    3.7950   -1.2610 hc        1 MOL      0.116062
     97 H41        -1.5160    6.4090    1.1310 ha        1 MOL      0.164009
     98 H42        -2.4320    5.4610   -2.9530 ha        1 MOL      0.164009
     99 H43        -0.8170    8.7340    0.4210 ha        1 MOL      0.079995
    100 H44        -1.6030    7.8010   -3.6240 ha        1 MOL      0.079995
    101 H45        -1.1130    9.8290   -2.9350 ho        1 MOL      0.355295
    102 N10         0.7880    3.4510   -0.7890 n         1 MOL     -0.631829
    103 C34         1.9860    2.7210   -1.2700 c3        1 MOL     -0.144310
    104 C35         3.1590    2.7940   -0.2240 c         1 MOL      0.784444
    105 O15         3.9180    1.8610   -0.0630 o         1 MOL     -0.560363
    106 C36         2.3660    3.0630   -2.7690 c3        1 MOL      0.073953
    107 C37         1.3130    2.5700   -3.8010 c3        1 MOL      0.072555
    108 C38         3.8110    2.6120   -3.2250 c3        1 MOL     -0.684294
    109 C39         1.2890    3.2270   -5.1340 c3        1 MOL     -0.140976
    110 H46         0.9060    4.4170   -0.5120 hn        1 MOL      0.231693
    111 H47         1.7010    1.6670   -1.2840 h1        1 MOL      0.105242
    112 H48         2.3320    4.1440   -2.9310 hc        1 MOL      0.037055
    113 H49         0.3080    2.6730   -3.3770 hc        1 MOL      0.025974
    114 H50         1.5200    1.5320   -4.0560 hc        1 MOL      0.025974
    115 H51         3.9800    1.5410   -3.0680 hc        1 MOL      0.201768
    116 H52         3.9250    2.7560   -4.2900 hc        1 MOL      0.201768
    117 H53         4.5140    3.1380   -2.5850 hc        1 MOL      0.201768
    118 H54         2.0930    2.9030   -5.7990 hc        1 MOL      0.026174
    119 H55         0.3020    2.9620   -5.5150 hc        1 MOL      0.026174
    120 H56         1.2990    4.3060   -4.9820 hc        1 MOL      0.026174
    121 N11         3.1910    3.8900    0.6170 n         1 MOL     -0.492850
    122 C40         3.9600    4.1760    1.7650 c3        1 MOL      0.044711
    123 C41         5.4950    4.0670    1.5950 c         1 MOL      0.298035
    124 O16         6.1400    3.9830    2.6280 o         1 MOL     -0.452300
    125 C42         3.6250    5.5540    2.3900 c3        1 MOL      0.165754
    126 O17         2.2020    5.6470    2.5700 oh        1 MOL     -0.572397
    127 H57         2.5200    4.6020    0.3480 hn        1 MOL      0.312411
    128 H58         3.7520    3.3650    2.4690 h1        1 MOL      0.147871
    129 H59         3.8080    6.2780    1.5850 h1        1 MOL      0.028872
    130 H60         4.1120    5.7980    3.3400 h1        1 MOL      0.028872
    131 H61         1.9380    6.5670    2.5790 ho        1 MOL      0.403687
    132 N12         5.9610    4.0210    0.3020 n         1 MOL     -0.221121
    133 C43         7.3510    3.8540   -0.0900 c3        1 MOL      0.178039
    134 C44         7.8230    2.4210    0.4070 c         1 MOL      0.512596
    135 O18         8.9880    2.2230    0.8280 o         1 MOL     -0.520603
    136 C45         8.2490    5.0180    0.2000 c3        1 MOL     -0.505207
    137 H62         5.2950    3.9660   -0.4500 hn        1 MOL      0.134195
    138 H63         7.3150    3.6830   -1.1660 h1        1 MOL      0.037906
    139 H64         8.0020    5.9090   -0.3700 hc        1 MOL      0.143694
    140 H65         8.1390    5.2400    1.2580 hc        1 MOL      0.143694
    141 H66         9.2810    4.6920    0.1230 hc        1 MOL      0.143694
    142 N13         6.8660    1.4300    0.3660 n         1 MOL     -0.657044
    143 C46         7.1070    0.1190    0.9360 c3        1 MOL      0.623169
    144 C47         6.9190   -1.0570   -0.0170 c         1 MOL      0.269936
    145 O19         6.1650   -0.9750   -1.0030 o         1 MOL     -0.477156
    146 C48         6.1850   -0.0570    2.1280 c3        1 MOL     -0.105461
    147 H67         5.9100    1.5890    0.0680 hn        1 MOL      0.291904
    148 H68         8.1070   -0.0060    1.3480 h1        1 MOL     -0.087224
    149 H69         6.4600   -0.9420    2.7100 hc        1 MOL      0.026616
    150 H70         6.2610    0.8420    2.7440 hc        1 MOL      0.026616
    151 H71         5.1480   -0.1440    1.8290 hc        1 MOL      0.026616
    152 N14         7.6460   -2.2030    0.2020 n         1 MOL     -0.475400
    153 C49         7.8870   -3.3720   -0.6450 c3        1 MOL      0.125924
    154 C50         8.0700   -3.0410   -2.1690 c         1 MOL      0.425923
    155 O20         7.6260   -3.8010   -3.0150 o         1 MOL     -0.478239
    156 C51         6.8240   -4.5070   -0.3910 c3        1 MOL     -0.024988
    157 C52         5.3300   -4.2920   -0.6100 c3        1 MOL     -0.064217
    158 C53         4.5520   -5.5740   -0.1340 c         1 MOL      0.827008
    159 O21         4.0490   -5.4620    1.0250 o         1 MOL     -0.764692
    160 O22         4.3500   -6.5440   -0.8820 o         1 MOL     -0.764692
    161 H72         8.1660   -2.2640    1.0600 hn        1 MOL      0.291863
    162 H73         8.8820   -3.7630   -0.4470 h1        1 MOL      0.010125
    163 H74         6.8680   -4.7880    0.6630 hc        1 MOL      0.008923
    164 H75         7.1340   -5.3120   -1.0700 hc        1 MOL      0.008923
    165 H76         5.1170   -4.1880   -1.6700 hc        1 MOL      0.029557
    166 H77         4.9300   -3.4910    0.0100 hc        1 MOL      0.029557
    167 N15         8.6850   -1.8720   -2.4730 n         1 MOL     -0.250816
    168 C54         8.6350   -1.2350   -3.7790 c3        1 MOL     -0.206004
    169 H78         8.7700   -0.1590   -3.6640 h1        1 MOL      0.098069
    170 H79         9.4290   -1.6340   -4.4100 h1        1 MOL      0.098069
    171 H80         7.6680   -1.4310   -4.2430 h1        1 MOL      0.098069
    172 H81         9.1850   -1.3890   -1.7420 hn        1 MOL      0.220229
    173 Ca1        -0.3900   -5.6780   -1.1690 Ca        1 MOL      1.801121
    174 O23        -2.8380   -6.7730   -1.6490 oh        1 MOL     -0.855406
    175 H82        -3.0400   -7.7120   -1.6080 ho        1 MOL      0.421265
    176 H83        -3.5970   -6.3740   -2.0580 ho        1 MOL      0.421265
    177 O24         1.4550   -6.5170    0.7550 oh        1 MOL     -0.855406
    178 H84         2.3500   -6.1790    0.6910 ho        1 MOL      0.421265
    179 H85         1.3240   -6.6780    1.6890 ho        1 MOL      0.421265
    180 O25         1.9660   -6.4760   -2.1660 oh        1 MOL     -0.855406
    181 H86         2.8500   -6.3310   -1.8180 ho        1 MOL      0.421265
    182 H87         1.9700   -7.3970   -2.4350 ho        1 MOL      0.421265
    183 O26        -0.7250   -5.3690   -3.7680 oh        1 MOL     -0.855406
    184 H88        -0.3260   -5.5740   -4.6140 ho        1 MOL      0.421265
    185 H89        -1.4890   -4.8460   -3.9880 ho        1 MOL      0.421265
    186 O27         0.0560   -8.3270   -1.0990 oh        1 MOL     -0.855406
    187 H90         0.9170   -8.7240   -0.9370 ho        1 MOL      0.421265
    188 H91        -0.2960   -8.8030   -1.8470 ho        1 MOL      0.421265
    189 O28        -1.4790   -5.8880    1.2640 oh        1 MOL     -0.855406
    190 H92        -2.1950   -6.3870    1.6340 ho        1 MOL      0.421265
    191 H93        -0.9320   -5.6540    2.0170 ho        1 MOL      0.421265
    192 O29         1.6580   -3.4630   -1.3450 oh        1 MOL     -0.855406
    193 H94         2.4990   -3.0460   -1.2110 ho        1 MOL      0.421265
    194 H95         1.0790   -2.7620   -1.6430 ho        1 MOL      0.421265
@<TRIPOS>BOND
     1    1    2 1   
     2    1    4 1   
     3    1    5 1   
     4    1    6 1   
     5    2    3 2   
     6    2    7 1   
     7    7    8 1   
     8    7   15 1   
     9    8    9 1   
    10    8   11 1   
    11    8   16 1   
    12    9   10 2   
    13    9   19 1   
    14   11   12 1   
    15   11   17 1   
    16   11   18 1   
    17   12   13 1   
    18   12   14 1   
    19   19   20 1   
    20   19   28 1   
    21   20   21 1   
    22   20   23 1   
    23   20   29 1   
    24   21   22 2   
    25   21   41 1   
    26   23   24 1   
    27   23   30 1   
    28   23   31 1   
    29   24   25 1   
    30   24   32 1   
    31   24   33 1   
    32   25   26 1   
    33   25   34 1   
    34   25   35 1   
    35   26   27 1   
    36   26   36 1   
    37   26   37 1   
    38   27   38 1   
    39   27   39 1   
    40   27   40 1   
    41   41   42 1   
    42   41   49 1   
    43   42   43 1   
    44   42   45 1   
    45   42   50 1   
    46   43   44 2   
    47   43   53 1   
    48   45   46 1   
    49   45   51 1   
    50   45   52 1   
    51   46   47 1   
    52   46   48 1   
    53   53   54 1   
    54   53   57 1   
    55   54   55 1   
    56   54   58 1   
    57   54   59 1   
    58   55   56 2   
    59   55   60 1   
    60   60   61 1   
    61   60   68 1   
    62   61   62 1   
    63   61   64 1   
    64   61   69 1   
    65   62   63 2   
    66   62   74 1   
    67   64   65 1   
    68   64   70 1   
    69   64   71 1   
    70   65   66 1   
    71   65   67 2   
    72   66   72 1   
    73   66   73 1   
    74   74   75 1   
    75   74   78 1   
    76   75   76 1   
    77   75   79 1   
    78   75   80 1   
    79   76   77 2   
    80   76   81 1   
    81   81   82 1   
    82   81   93 1   
    83   82   83 1   
    84   82   85 1   
    85   82   94 1   
    86   83   84 2   
    87   83  102 1   
    88   85   86 1   
    89   85   95 1   
    90   85   96 1   
    91   86   87 ar  
    92   86   88 ar  
    93   87   89 ar  
    94   87   97 1   
    95   88   90 ar  
    96   88   98 1   
    97   89   91 ar  
    98   89   99 1   
    99   90   91 ar  
   100   90  100 1   
   101   91   92 1   
   102   92  101 1   
   103  102  103 1   
   104  102  110 1   
   105  103  104 1   
   106  103  106 1   
   107  103  111 1   
   108  104  105 2   
   109  104  121 1   
   110  106  107 1   
   111  106  108 1   
   112  106  112 1   
   113  107  109 1   
   114  107  113 1   
   115  107  114 1   
   116  108  115 1   
   117  108  116 1   
   118  108  117 1   
   119  109  118 1   
   120  109  119 1   
   121  109  120 1   
   122  121  122 1   
   123  121  127 1   
   124  122  123 1   
   125  122  125 1   
   126  122  128 1   
   127  123  124 2   
   128  123  132 1   
   129  125  126 1   
   130  125  129 1   
   131  125  130 1   
   132  126  131 1   
   133  132  133 1   
   134  132  137 1   
   135  133  134 1   
   136  133  136 1   
   137  133  138 1   
   138  134  135 2   
   139  134  142 1   
   140  136  139 1   
   141  136  140 1   
   142  136  141 1   
   143  142  143 1   
   144  142  147 1   
   145  143  144 1   
   146  143  146 1   
   147  143  148 1   
   148  144  145 2   
   149  144  152 1   
   150  146  149 1   
   151  146  150 1   
   152  146  151 1   
   153  152  153 1   
   154  152  161 1   
   155  153  154 1   
   156  153  156 1   
   157  153  162 1   
   158  154  155 2   
   159  154  167 1   
   160  156  157 1   
   161  156  163 1   
   162  156  164 1   
   163  157  158 1   
   164  157  165 1   
   165  157  166 1   
   166  158  159 1   
   167  158  160 1   
   168  167  168 1   
   169  167  172 1   
   170  168  169 1   
   171  168  170 1   
   172  168  171 1   
   173  174  175 1   
   174  174  176 1   
   175  177  178 1   
   176  177  179 1   
   177  180  181 1   
   178  180  182 1   
   179  183  184 1   
   180  183  185 1   
   181  186  187 1   
   182  186  188 1   
   183  189  190 1   
   184  189  191 1   
   185  192  193 1   
   186  192  194 1   
@<TRIPOS>SUBSTRUCTURE
     1 MOL         1 TEMP              0 ****  ****    0 ROOT
