@<TRIPOS>MOLECULE
MOL
  188   182     1     0     0
SMALL
resp


@<TRIPOS>ATOM
      1 C1         -5.9560   -1.7710    3.8450 c3        1 MOL     -0.425226
      2 C2         -6.1820   -1.9760    2.3860 c         1 MOL      0.591235
      3 O1         -5.4180   -1.3560    1.6240 o         1 MOL     -0.466167
      4 H1         -5.1660   -1.0340    3.9900 hc        1 MOL      0.102312
      5 H2         -6.8750   -1.4130    4.3080 hc        1 MOL      0.102312
      6 H3         -5.6610   -2.7140    4.3040 hc        1 MOL      0.102312
      7 N1         -7.2150   -2.7160    2.0360 n         1 MOL     -0.480686
      8 C3         -7.5460   -2.9780    0.6770 c3        1 MOL      0.179043
      9 C4         -7.6070   -1.6880   -0.2260 c         1 MOL      0.411315
     10 O2         -7.1760   -1.7040   -1.3590 o         1 MOL     -0.399279
     11 C5         -6.7580   -4.1980    0.0700 c3        1 MOL     -0.268574
     12 C6         -7.3540   -4.8070   -1.1870 c         1 MOL      0.696339
     13 O3         -8.5120   -4.4650   -1.5630 o         1 MOL     -0.650075
     14 O4         -6.6800   -5.6150   -1.8250 o         1 MOL     -0.650075
     15 H4         -7.8370   -3.0220    2.7730 hn        1 MOL      0.310398
     16 H5         -8.5980   -3.2640    0.7280 h1        1 MOL      0.008246
     17 H6         -6.8220   -4.9520    0.8540 hc        1 MOL      0.072738
     18 H7         -5.7080   -3.9700   -0.0870 hc        1 MOL      0.072738
     19 N2         -8.2490   -0.6450    0.4280 n         1 MOL     -0.533913
     20 C7         -8.5110    0.6050   -0.2410 c3        1 MOL      0.371673
     21 C8         -7.4570    1.6520   -0.1020 c         1 MOL      0.176160
     22 O5         -7.6440    2.8260   -0.4760 o         1 MOL     -0.509723
     23 C9         -9.9150    1.0650    0.0360 c3        1 MOL     -0.160957
     24 C10       -10.0800    1.7720    1.3760 c3        1 MOL      0.042143
     25 C11       -11.5540    1.7300    1.8330 c3        1 MOL      0.106743
     26 C12       -11.6520    2.5910    3.1150 c3        1 MOL      0.017362
     27 N3        -12.9860    2.4390    3.8180 n4        1 MOL     -0.070455
     28 H8         -8.4460   -0.7040    1.4180 hn        1 MOL      0.264904
     29 H9         -8.4810    0.3670   -1.3070 h1        1 MOL      0.074717
     30 H10       -10.5690    0.2440   -0.2460 hc        1 MOL      0.056045
     31 H11       -10.1450    1.7860   -0.7510 hc        1 MOL      0.056045
     32 H12        -9.6900    2.7790    1.2500 hc        1 MOL      0.022807
     33 H13        -9.4740    1.2290    2.0940 hc        1 MOL      0.022807
     34 H14       -11.7160    0.7180    2.1900 hc        1 MOL     -0.023531
     35 H15       -12.2260    2.1330    1.0770 hc        1 MOL     -0.023531
     36 H16       -11.3950    3.6010    2.7960 hx        1 MOL      0.048480
     37 H17       -10.9500    2.1740    3.8320 hx        1 MOL      0.048480
     38 H18       -12.9820    2.9640    4.6840 hn        1 MOL      0.174730
     39 H19       -13.8120    2.6440    3.2720 hn        1 MOL      0.174730
     40 H20       -13.2120    1.4950    4.0780 hn        1 MOL      0.174730
     41 N4         -6.3040    1.3140    0.4260 n         1 MOL     -0.175925
     42 C13        -4.9510    2.0460    0.3560 c3        1 MOL     -0.100604
     43 C14        -4.6870    2.5870   -1.0550 c         1 MOL      0.627150
     44 O6         -5.0550    2.0010   -2.0310 o         1 MOL     -0.389010
     45 C15        -3.8410    1.0400    0.6650 c3        1 MOL     -0.106938
     46 C16        -2.4220    1.5960    0.5010 c         1 MOL      0.588747
     47 O7         -1.7520    1.7080    1.5850 o         1 MOL     -0.737573
     48 O8         -1.7840    1.6380   -0.5820 o         1 MOL     -0.737573
     49 H21        -6.1600    0.3400    0.6530 hn        1 MOL      0.076425
     50 H22        -5.0320    2.9050    1.0150 h1        1 MOL      0.049350
     51 H23        -3.9750    0.1780    0.0140 hc        1 MOL      0.117617
     52 H24        -3.8700    0.7210    1.7020 hc        1 MOL      0.117617
     53 N5         -4.0040    3.7810   -1.0060 n         1 MOL     -0.361787
     54 C17        -3.7700    4.5690   -2.1670 c3        1 MOL     -0.283015
     55 C18        -2.9730    3.8730   -3.3010 c         1 MOL      0.618542
     56 O9         -3.0860    4.3650   -4.4320 o         1 MOL     -0.550949
     57 H25        -3.6880    4.2070   -0.1440 hn        1 MOL      0.265482
     58 H26        -3.2050    5.4550   -1.8690 h1        1 MOL      0.129096
     59 H27        -4.7460    4.7970   -2.6020 h1        1 MOL      0.129096
     60 N6         -2.2340    2.7580   -3.0030 n         1 MOL     -0.471357
     61 C19        -1.6450    1.9190   -4.0910 c3        1 MOL      0.251051
     62 C20        -1.9620    0.4110   -3.9570 c         1 MOL      0.480423
     63 O10        -1.3320   -0.4250   -4.6150 o         1 MOL     -0.569495
     64 C21        -0.2110    2.2470   -4.3930 c3        1 MOL     -0.498059
     65 C22         0.8630    1.7450   -3.4520 c         1 MOL      0.755036
     66 N7          1.9190    1.0640   -3.7730 n         1 MOL     -0.839946
     67 O11         0.7580    1.9700   -2.2610 o         1 MOL     -0.660147
     68 H28        -2.1620    2.4690   -2.0360 hn        1 MOL      0.323434
     69 H29        -2.2240    2.2010   -4.9610 h1        1 MOL      0.078067
     70 H30        -0.1440    3.3350   -4.4080 hc        1 MOL      0.145375
     71 H31         0.1310    1.7910   -5.3240 hc        1 MOL      0.145375
     72 H32         2.1010    0.9420   -4.7600 hn        1 MOL      0.393847
     73 H33         2.6730    0.8650   -3.1280 hn        1 MOL      0.393847
     74 N8         -3.0010    0.0910   -3.1970 n         1 MOL     -0.219434
     75 C23        -3.5210   -1.2840   -2.9760 c3        1 MOL     -0.055307
     76 C24        -2.8280   -1.9830   -1.8340 c         1 MOL      0.417799
     77 O12        -3.1700   -3.1320   -1.5790 o         1 MOL     -0.477535
     78 H34        -3.4020    0.8320   -2.6390 hn        1 MOL     -0.000762
     79 H35        -3.4650   -1.7910   -3.9380 h1        1 MOL      0.128683
     80 H36        -4.5910   -1.3360   -2.7560 h1        1 MOL      0.128683
     81 N9         -1.8240   -1.3820   -1.2050 n         1 MOL     -0.360595
     82 C25        -1.0180   -2.0700   -0.1220 c3        1 MOL      0.042331
     83 C26         0.3510   -1.4490   -0.0560 c         1 MOL      0.359577
     84 O13         0.4830   -0.2050   -0.1870 o         1 MOL     -0.463756
     85 C27        -1.8640   -1.9670    1.1970 c3        1 MOL     -0.354136
     86 C28        -1.2730   -2.2720    2.5680 ca        1 MOL      0.108011
     87 C29        -1.1560   -3.6500    2.9950 ca        1 MOL     -0.165160
     88 C30        -1.0070   -1.1880    3.4640 ca        1 MOL     -0.165160
     89 C31        -0.5670   -3.9330    4.2390 ca        1 MOL     -0.243556
     90 C32        -0.5840   -1.5320    4.7680 ca        1 MOL     -0.243556
     91 C33        -0.2030   -2.8520    5.0690 ca        1 MOL      0.310760
     92 O14         0.3610   -3.1290    6.2770 oh        1 MOL     -0.450717
     93 H37        -1.6480   -0.4180   -1.4370 hn        1 MOL      0.307621
     94 H38        -0.9660   -3.1360   -0.3100 h1        1 MOL      0.069504
     95 H39        -2.6900   -2.6470    0.9840 hc        1 MOL      0.176745
     96 H40        -2.3370   -0.9870    1.2370 hc        1 MOL      0.176745
     97 H41        -1.4460   -4.5120    2.4110 ha        1 MOL      0.153285
     98 H42        -1.4010   -0.2280    3.1540 ha        1 MOL      0.153285
     99 H43        -0.4490   -4.9490    4.5700 ha        1 MOL      0.146753
    100 H44        -0.3870   -0.8130    5.5500 ha        1 MOL      0.146753
    101 H45         0.7670   -2.3100    6.5400 ho        1 MOL      0.326884
    102 N10         1.3740   -2.2720    0.0250 n         1 MOL     -0.377833
    103 C34         2.8190   -1.9310    0.2670 c3        1 MOL      0.013858
    104 C35         3.5290   -1.4200   -0.9710 c         1 MOL      0.376174
    105 O15         4.4060   -0.5710   -0.9400 o         1 MOL     -0.566423
    106 C36         3.7070   -3.0560    0.8920 c3        1 MOL     -0.021435
    107 C37         3.1750   -3.7820    2.1770 c3        1 MOL     -0.069106
    108 C38         5.0930   -2.5860    1.2710 c3        1 MOL     -0.482770
    109 C39         2.6940   -2.8210    3.2820 c3        1 MOL     -0.211547
    110 H46         1.1990   -3.2640    0.0620 hn        1 MOL      0.282371
    111 H47         2.7880   -1.1490    1.0280 h1        1 MOL      0.158510
    112 H48         3.8970   -3.8580    0.1740 hc        1 MOL      0.013999
    113 H49         3.9220   -4.3800    2.7040 hc        1 MOL      0.073846
    114 H50         2.3490   -4.4350    1.9090 hc        1 MOL      0.073846
    115 H51         5.5490   -2.1020    0.4020 hc        1 MOL      0.146348
    116 H52         5.0070   -1.8400    2.0580 hc        1 MOL      0.146348
    117 H53         5.7550   -3.3790    1.6120 hc        1 MOL      0.146348
    118 H54         2.5540   -3.3920    4.2120 hc        1 MOL      0.062084
    119 H55         3.4740   -2.0740    3.4390 hc        1 MOL      0.062084
    120 H56         1.7300   -2.3720    3.0800 hc        1 MOL      0.062084
    121 N11         3.2830   -1.9910   -2.1210 n         1 MOL     -0.204643
    122 C40         3.9490   -1.7570   -3.4330 c3        1 MOL      0.026892
    123 C41         5.4100   -2.2420   -3.3280 c         1 MOL      0.283619
    124 O16         6.1920   -1.6450   -4.0840 o         1 MOL     -0.457003
    125 C42         3.1200   -2.3470   -4.5230 c3        1 MOL      0.037186
    126 O17         1.8730   -1.7670   -4.4700 oh        1 MOL     -0.491551
    127 H57         2.6000   -2.7420   -2.0770 hn        1 MOL      0.216239
    128 H58         4.0350   -0.7080   -3.7000 h1        1 MOL      0.124337
    129 H59         3.0500   -3.4270   -4.3920 h1        1 MOL      0.073762
    130 H60         3.4730   -1.9930   -5.4850 h1        1 MOL      0.073762
    131 H61         1.2920   -2.3520   -3.9790 ho        1 MOL      0.385437
    132 N12         5.7980   -3.1580   -2.4830 n         1 MOL     -0.269996
    133 C43         7.1600   -3.4100   -2.0830 c3        1 MOL      0.253432
    134 C44         8.0940   -2.1900   -1.8680 c         1 MOL      0.406434
    135 O18         9.3420   -2.1680   -2.1210 o         1 MOL     -0.507538
    136 C45         7.7810   -4.5200   -2.9690 c3        1 MOL     -0.536992
    137 H62         5.1270   -3.5980   -1.8750 hn        1 MOL      0.220122
    138 H63         7.0740   -3.8790   -1.1030 h1        1 MOL      0.042055
    139 H64         8.8650   -4.5380   -2.8330 hc        1 MOL      0.152486
    140 H65         7.1910   -5.4240   -2.9090 hc        1 MOL      0.152486
    141 H66         7.6520   -4.0850   -3.9560 hc        1 MOL      0.152486
    142 N13         7.5590   -1.0850   -1.2430 n         1 MOL     -0.501053
    143 C46         8.2560    0.2270   -1.0810 c3        1 MOL      0.583785
    144 C47         8.0950    0.6060    0.3950 c         1 MOL      0.215228
    145 O19         7.0930    0.3420    1.0360 o         1 MOL     -0.380418
    146 C48         7.4760    1.1990   -1.9570 c3        1 MOL     -0.525438
    147 H67         6.5950   -1.1910   -0.9720 hn        1 MOL      0.288763
    148 H68         9.3140    0.1960   -1.3290 h1        1 MOL     -0.034031
    149 H69         7.5620    0.8200   -2.9740 hc        1 MOL      0.136863
    150 H70         6.4260    1.3360   -1.7040 hc        1 MOL      0.136863
    151 H71         7.9930    2.1280   -1.7180 hc        1 MOL      0.136863
    152 N14         9.1740    1.2400    0.9360 n         1 MOL     -0.462818
    153 C49         9.4030    1.6560    2.3010 c3        1 MOL     -0.137227
    154 C50         9.4290    0.4800    3.3820 c         1 MOL      0.477078
    155 O20         9.1760    0.7140    4.5540 o         1 MOL     -0.487488
    156 C51         8.4880    2.7850    2.7350 c3        1 MOL      0.340230
    157 C52         8.2340    3.8060    1.5930 c3        1 MOL     -0.243467
    158 C53         7.9950    5.2030    2.1070 c         1 MOL      0.641548
    159 O21         6.8700    5.7000    1.9130 o         1 MOL     -0.674422
    160 O22         8.9520    5.7700    2.7700 o         1 MOL     -0.674422
    161 H72         9.9870    1.3380    0.3470 hn        1 MOL      0.311464
    162 H73        10.4190    2.0430    2.3620 h1        1 MOL      0.101801
    163 H74         8.8580    3.2980    3.6220 hc        1 MOL     -0.047196
    164 H75         7.5900    2.2660    3.0860 hc        1 MOL     -0.047196
    165 H76         7.4620    3.4150    0.9370 hc        1 MOL      0.020531
    166 H77         9.1340    3.8150    0.9850 hc        1 MOL      0.020531
    167 N15         9.7390   -0.7670    2.9250 n         1 MOL     -0.316711
    168 C54         9.6860   -1.9290    3.7850 c3        1 MOL     -0.135242
    169 H78         9.9270   -1.6370    4.8060 h1        1 MOL      0.083303
    170 H79         8.6830   -2.3560    3.7570 h1        1 MOL      0.083303
    171 H80        10.4060   -2.6710    3.4390 h1        1 MOL      0.083303
    172 H81         9.9740   -0.9190    1.9580 hn        1 MOL      0.238744
    173 Ca1         0.4850    2.3510    0.2720 Ca        1 MOL      1.773953
    174 O23         1.9620    1.4720    2.3890 oh        1 MOL     -0.817924
    175 H82         2.9010    1.4240    2.5200 ho        1 MOL      0.408450
    176 H83         1.5860    1.2560    3.2410 ho        1 MOL      0.408450
    177 O24        -1.0390    4.4940   -0.3010 oh        1 MOL     -0.817924
    178 H84        -1.8010    4.7070    0.2380 ho        1 MOL      0.408450
    179 H85        -0.6840    5.3510   -0.5630 ho        1 MOL      0.408450
    180 O25         2.0450    4.6640    0.1770 oh        1 MOL     -0.817924
    181 H86         1.7550    5.5740    0.2560 ho        1 MOL      0.408450
    182 H87         2.9770    4.6950    0.3850 ho        1 MOL      0.408450
    183 O26         0.4620    3.9150    2.4040 oh        1 MOL     -0.817924
    184 H88         1.3050    4.0550    2.8300 ho        1 MOL      0.408450
    185 H89        -0.0730    4.6620    2.6930 ho        1 MOL      0.408450
    186 O27         3.2080    2.0590   -0.5390 oh        1 MOL     -0.817924
    187 H90         3.7600    2.7990   -0.8000 ho        1 MOL      0.408450
    188 H91         3.7570    1.2870   -0.6840 ho        1 MOL      0.408450
@<TRIPOS>BOND
     1    1    2 1   
     2    1    4 1   
     3    1    5 1   
     4    1    6 1   
     5    2    3 2   
     6    2    7 1   
     7    7    8 1   
     8    7   15 1   
     9    8    9 1   
    10    8   11 1   
    11    8   16 1   
    12    9   10 2   
    13    9   19 1   
    14   11   12 1   
    15   11   17 1   
    16   11   18 1   
    17   12   13 1   
    18   12   14 1   
    19   19   20 1   
    20   19   28 1   
    21   20   21 1   
    22   20   23 1   
    23   20   29 1   
    24   21   22 2   
    25   21   41 1   
    26   23   24 1   
    27   23   30 1   
    28   23   31 1   
    29   24   25 1   
    30   24   32 1   
    31   24   33 1   
    32   25   26 1   
    33   25   34 1   
    34   25   35 1   
    35   26   27 1   
    36   26   36 1   
    37   26   37 1   
    38   27   38 1   
    39   27   39 1   
    40   27   40 1   
    41   41   42 1   
    42   41   49 1   
    43   42   43 1   
    44   42   45 1   
    45   42   50 1   
    46   43   44 2   
    47   43   53 1   
    48   45   46 1   
    49   45   51 1   
    50   45   52 1   
    51   46   47 1   
    52   46   48 1   
    53   53   54 1   
    54   53   57 1   
    55   54   55 1   
    56   54   58 1   
    57   54   59 1   
    58   55   56 2   
    59   55   60 1   
    60   60   61 1   
    61   60   68 1   
    62   61   62 1   
    63   61   64 1   
    64   61   69 1   
    65   62   63 2   
    66   62   74 1   
    67   64   65 1   
    68   64   70 1   
    69   64   71 1   
    70   65   66 1   
    71   65   67 2   
    72   66   72 1   
    73   66   73 1   
    74   74   75 1   
    75   74   78 1   
    76   75   76 1   
    77   75   79 1   
    78   75   80 1   
    79   76   77 2   
    80   76   81 1   
    81   81   82 1   
    82   81   93 1   
    83   82   83 1   
    84   82   85 1   
    85   82   94 1   
    86   83   84 2   
    87   83  102 1   
    88   85   86 1   
    89   85   95 1   
    90   85   96 1   
    91   86   87 ar  
    92   86   88 ar  
    93   87   89 ar  
    94   87   97 1   
    95   88   90 ar  
    96   88   98 1   
    97   89   91 ar  
    98   89   99 1   
    99   90   91 ar  
   100   90  100 1   
   101   91   92 1   
   102   92  101 1   
   103  102  103 1   
   104  102  110 1   
   105  103  104 1   
   106  103  106 1   
   107  103  111 1   
   108  104  105 2   
   109  104  121 1   
   110  106  107 1   
   111  106  108 1   
   112  106  112 1   
   113  107  109 1   
   114  107  113 1   
   115  107  114 1   
   116  108  115 1   
   117  108  116 1   
   118  108  117 1   
   119  109  118 1   
   120  109  119 1   
   121  109  120 1   
   122  121  122 1   
   123  121  127 1   
   124  122  123 1   
   125  122  125 1   
   126  122  128 1   
   127  123  124 2   
   128  123  132 1   
   129  125  126 1   
   130  125  129 1   
   131  125  130 1   
   132  126  131 1   
   133  132  133 1   
   134  132  137 1   
   135  133  134 1   
   136  133  136 1   
   137  133  138 1   
   138  134  135 2   
   139  134  142 1   
   140  136  139 1   
   141  136  140 1   
   142  136  141 1   
   143  142  143 1   
   144  142  147 1   
   145  143  144 1   
   146  143  146 1   
   147  143  148 1   
   148  144  145 2   
   149  144  152 1   
   150  146  149 1   
   151  146  150 1   
   152  146  151 1   
   153  152  153 1   
   154  152  161 1   
   155  153  154 1   
   156  153  156 1   
   157  153  162 1   
   158  154  155 2   
   159  154  167 1   
   160  156  157 1   
   161  156  163 1   
   162  156  164 1   
   163  157  158 1   
   164  157  165 1   
   165  157  166 1   
   166  158  159 1   
   167  158  160 1   
   168  167  168 1   
   169  167  172 1   
   170  168  169 1   
   171  168  170 1   
   172  168  171 1   
   173  174  175 1   
   174  174  176 1   
   175  177  178 1   
   176  177  179 1   
   177  180  181 1   
   178  180  182 1   
   179  183  184 1   
   180  183  185 1   
   181  186  187 1   
   182  186  188 1   
@<TRIPOS>SUBSTRUCTURE
     1 MOL         1 TEMP              0 ****  ****    0 ROOT
