@<TRIPOS>MOLECULE
MOL
  192   187     1     0     0
SMALL
resp


@<TRIPOS>ATOM
      1 C1          9.6000    1.0950    1.7260 c3        1 MOL     -0.359785
      2 C2          8.3840    0.8200    0.7940 c         1 MOL      0.671110
      3 O1          7.2010    0.9460    1.2270 o         1 MOL     -0.668900
      4 H1          9.2420    1.4130    2.7060 hc        1 MOL      0.091143
      5 H2         10.1900    0.1850    1.8340 hc        1 MOL      0.091143
      6 H3         10.2190    1.8800    1.2940 hc        1 MOL      0.091143
      7 N1          8.6060    0.4410   -0.4630 n         1 MOL     -0.400518
      8 C3          7.6980    0.1460   -1.6090 c3        1 MOL      0.038746
      9 C4          7.1120   -1.3280   -1.5010 c         1 MOL      0.463502
     10 O2          6.9500   -2.0280   -2.5060 o         1 MOL     -0.455784
     11 C5          8.2880    0.3670   -2.9930 c3        1 MOL     -0.154804
     12 C6          9.7860    0.0430   -3.1940 c         1 MOL      0.719232
     13 O3         10.3780   -0.4000   -2.2110 o         1 MOL     -0.647806
     14 O4         10.3480    0.1120   -4.3210 o         1 MOL     -0.647806
     15 H4          9.5820    0.2710   -0.6720 hn        1 MOL      0.217358
     16 H5          6.8170    0.7520   -1.4270 h1        1 MOL      0.098788
     17 H6          8.2430    1.4370   -3.2200 hc        1 MOL      0.045351
     18 H7          7.8070   -0.1670   -3.8150 hc        1 MOL      0.045351
     19 N2          6.9900   -1.8100   -0.2850 n         1 MOL     -0.304834
     20 C7          6.6300   -3.2050    0.0020 c3        1 MOL      0.028779
     21 C8          5.1540   -3.5490   -0.3060 c         1 MOL      0.323136
     22 O5          4.9500   -4.5180   -1.0290 o         1 MOL     -0.512941
     23 C9          7.0530   -3.4870    1.5270 c3        1 MOL      0.105647
     24 C10         6.9510   -4.9490    1.9600 c3        1 MOL     -0.165597
     25 C11         7.4830   -5.3570    3.3240 c3        1 MOL      0.108555
     26 C12         8.9540   -5.2270    3.5190 c3        1 MOL      0.034894
     27 N3          9.2550   -4.8940    4.9370 n4        1 MOL     -0.297626
     28 H8          7.1480   -1.1480    0.4650 hn        1 MOL      0.149538
     29 H9          7.3250   -3.8450   -0.5340 h1        1 MOL      0.100624
     30 H10         6.4680   -2.7980    2.1160 hc        1 MOL     -0.027153
     31 H11         8.0880   -3.1470    1.6110 hc        1 MOL     -0.027153
     32 H12         7.3030   -5.6310    1.1830 hc        1 MOL      0.062649
     33 H13         5.8870   -5.1600    2.0320 hc        1 MOL      0.062649
     34 H14         7.2020   -6.3560    3.6670 hc        1 MOL     -0.003243
     35 H15         7.0160   -4.6840    4.0390 hc        1 MOL     -0.003243
     36 H16         9.2090   -4.4470    2.7960 hx        1 MOL      0.077038
     37 H17         9.5170   -6.1150    3.2510 hx        1 MOL      0.077038
     38 H18        10.1540   -5.2420    5.2310 hn        1 MOL      0.277508
     39 H19         9.2810   -3.8840    4.9510 hn        1 MOL      0.277508
     40 H20         8.6090   -5.2120    5.6430 hn        1 MOL      0.277508
     41 N4          4.0920   -2.8580    0.0610 n         1 MOL     -0.166358
     42 C13         3.8950   -1.7070    1.0010 c3        1 MOL      0.014981
     43 C14         3.9850   -0.3590    0.2340 c         1 MOL      0.363887
     44 O6          4.1780   -0.2810   -0.9720 o         1 MOL     -0.439017
     45 C15         2.5660   -1.7960    1.7140 c3        1 MOL     -0.544897
     46 C16         1.3850   -1.9990    0.7340 c         1 MOL      0.739806
     47 O7          1.0080   -0.9590    0.1770 o         1 MOL     -0.676016
     48 O8          0.9720   -3.1470    0.3930 o         1 MOL     -0.676016
     49 H21         3.2250   -3.2780   -0.2430 hn        1 MOL      0.282346
     50 H22         4.7280   -1.6850    1.7100 h1        1 MOL      0.117714
     51 H23         2.3500   -0.9420    2.3430 hc        1 MOL      0.127549
     52 H24         2.6920   -2.6670    2.3540 hc        1 MOL      0.127549
     53 N5          3.8900    0.7240    1.0210 n         1 MOL     -0.278988
     54 C17         3.9490    2.1250    0.6460 c3        1 MOL      0.073922
     55 C18         2.7230    2.5900   -0.1440 c         1 MOL      0.621493
     56 O9          1.6800    1.9460   -0.3620 o         1 MOL     -0.522750
     57 H25         3.8860    0.6150    2.0180 hn        1 MOL      0.232962
     58 H26         4.7500    2.2210   -0.0870 h1        1 MOL      0.053025
     59 H27         4.2310    2.8790    1.3780 h1        1 MOL      0.053025
     60 N6          2.7180    3.8850   -0.4220 n         1 MOL     -0.634905
     61 C19         1.6560    4.7690   -1.1130 c3        1 MOL      0.448667
     62 C20         1.9030    6.2350   -0.7570 c         1 MOL      0.353002
     63 O10         3.0360    6.6250   -0.3850 o         1 MOL     -0.535500
     64 C21         1.7090    4.5890   -2.6790 c3        1 MOL     -0.198259
     65 C22         1.5680    3.1150   -3.0470 c         1 MOL      0.658954
     66 O11         2.5530    2.4720   -3.5420 o         1 MOL     -0.669298
     67 O12         0.4240    2.6410   -2.9810 o         1 MOL     -0.669298
     68 H28         3.5100    4.3830   -0.0490 hn        1 MOL      0.291828
     69 H29         0.6290    4.4860   -0.8900 h1        1 MOL     -0.099397
     70 H30         2.6190    5.0030   -3.1080 hc        1 MOL      0.041390
     71 H31         0.9430    5.1810   -3.1870 hc        1 MOL      0.041390
     72 N7          1.0400    7.2220   -0.9380 n         1 MOL     -0.351223
     73 C23        -0.3680    7.2960   -1.4650 c3        1 MOL     -0.101762
     74 C24        -1.2970    6.4600   -0.5850 c         1 MOL      0.624491
     75 O13        -1.2610    6.5500    0.6050 o         1 MOL     -0.524892
     76 H32         1.4330    8.1180   -0.6920 hn        1 MOL      0.308234
     77 H33        -0.4890    6.9360   -2.4890 h1        1 MOL      0.077952
     78 H34        -0.7140    8.3310   -1.4740 h1        1 MOL      0.077952
     79 N8         -2.1550    5.6250   -1.2080 n         1 MOL     -0.579802
     80 C25        -2.9340    4.6070   -0.4010 c3        1 MOL      0.040677
     81 C26        -2.0440    3.5790    0.3620 c         1 MOL      0.720063
     82 O14        -1.2200    2.9420   -0.2930 o         1 MOL     -0.663210
     83 C27        -3.9820    3.8090   -1.2660 c3        1 MOL      0.482844
     84 C28        -4.9490    4.7660   -2.0240 c3        1 MOL     -0.323438
     85 O15        -4.7450    2.9980   -0.4240 oh        1 MOL     -0.713366
     86 H35        -1.9260    5.5040   -2.1880 hn        1 MOL      0.316739
     87 H36        -3.6020    5.0910    0.3270 h1        1 MOL      0.077486
     88 H37        -3.4560    3.1210   -1.9390 h1        1 MOL     -0.038500
     89 H38        -5.4310    2.5650   -0.9420 ho        1 MOL      0.426079
     90 H39        -4.3500    5.4070   -2.6670 hc        1 MOL      0.071493
     91 H40        -5.6410    4.1900   -2.6460 hc        1 MOL      0.071493
     92 H41        -5.4600    5.3900   -1.2830 hc        1 MOL      0.071493
     93 N9         -2.1280    3.5150    1.6940 n         1 MOL     -0.647169
     94 C29        -1.3170    2.5180    2.5710 c3        1 MOL      0.030444
     95 C30        -1.7160    1.0990    2.2680 c         1 MOL      0.817336
     96 O16        -1.5740    0.6230    1.1610 o         1 MOL     -0.581349
     97 C31         0.2180    2.7130    2.5790 c3        1 MOL      0.228088
     98 C32         0.7170    4.1770    2.6120 c3        1 MOL      0.106268
     99 C33         0.7130    1.9340    3.8630 c3        1 MOL     -0.384165
    100 C34         0.4410    4.9390    3.8760 c3        1 MOL     -0.299741
    101 H42        -2.9110    3.8950    2.2130 hn        1 MOL      0.330321
    102 H43        -1.7300    2.7580    3.5520 h1        1 MOL      0.056003
    103 H44         0.7220    2.2880    1.7110 hc        1 MOL     -0.104750
    104 H45         0.1800    4.6690    1.8010 hc        1 MOL      0.023121
    105 H46         1.7600    4.2360    2.3220 hc        1 MOL      0.023121
    106 H47         0.8000    0.8840    3.5830 hc        1 MOL      0.083732
    107 H48         1.7650    2.1520    4.0480 hc        1 MOL      0.083732
    108 H49         0.1380    2.0920    4.7740 hc        1 MOL      0.083732
    109 H50        -0.6170    5.0850    4.0650 hc        1 MOL      0.068307
    110 H51         0.7630    4.3830    4.7490 hc        1 MOL      0.068307
    111 H52         0.8670    5.9460    3.8720 hc        1 MOL      0.068307
    112 N10        -2.1380    0.3740    3.3130 n         1 MOL     -0.724604
    113 C35        -2.5170   -1.0440    3.1650 c3        1 MOL     -0.021501
    114 C36        -4.0490   -1.3690    3.1810 c         1 MOL      0.543639
    115 O17        -4.5340   -2.4360    3.2370 o         1 MOL     -0.544217
    116 C37        -1.8370   -1.8710    4.2650 c3        1 MOL      0.604026
    117 C38        -2.0780   -1.2780    5.6350 c3        1 MOL     -0.433016
    118 O18        -0.4410   -1.9540    4.1030 oh        1 MOL     -0.676173
    119 H53        -2.2600    0.8970    4.1780 hn        1 MOL      0.312779
    120 H54        -2.1280   -1.4830    2.2510 h1        1 MOL      0.074388
    121 H55        -2.3400   -2.8310    4.1400 h1        1 MOL     -0.029317
    122 H56        -0.0910   -1.1600    3.7040 ho        1 MOL      0.417682
    123 H57        -3.1110   -1.4530    5.9120 hc        1 MOL      0.097293
    124 H58        -1.4880   -1.8920    6.3120 hc        1 MOL      0.097293
    125 H59        -1.6670   -0.2680    5.7010 hc        1 MOL      0.097293
    126 N11        -4.9750   -0.3720    3.1290 n         1 MOL     -0.318567
    127 C39        -6.4400   -0.3880    2.9530 c3        1 MOL     -0.089348
    128 C40        -6.8150   -0.8710    1.5100 c         1 MOL      0.587779
    129 O19        -7.3820   -0.0910    0.7360 o         1 MOL     -0.528861
    130 C41        -7.0970    0.9590    3.3060 c3        1 MOL      0.334060
    131 C42        -7.2090    1.3270    4.7910 c3        1 MOL     -0.117743
    132 O20        -6.4120    2.0470    2.8250 oh        1 MOL     -0.592831
    133 H60        -4.5510    0.5520    3.0880 hn        1 MOL      0.247501
    134 H61        -6.8520   -1.1360    3.6240 h1        1 MOL      0.084251
    135 H62        -8.1520    0.9520    3.0230 h1        1 MOL      0.008259
    136 H63        -7.0650    2.5960    2.3730 ho        1 MOL      0.395357
    137 H64        -7.7110    2.2950    4.8530 hc        1 MOL      0.019381
    138 H65        -7.8870    0.6100    5.2530 hc        1 MOL      0.019381
    139 H66        -6.2740    1.2800    5.3480 hc        1 MOL      0.019381
    140 N12        -6.5760   -2.1420    1.1790 n         1 MOL     -0.676276
    141 C43        -6.3710   -2.7410   -0.1560 c3        1 MOL      0.157394
    142 C44        -5.0240   -2.3160   -0.7970 c         1 MOL      0.647615
    143 O21        -4.4860   -1.2030   -0.6150 o         1 MOL     -0.478697
    144 C45        -7.5790   -2.6260   -1.1180 c3        1 MOL     -0.469713
    145 C46        -8.9710   -2.7920   -0.5820 c3        1 MOL      0.472860
    146 C47        -9.9490   -2.3590   -1.7130 c3        1 MOL     -0.016702
    147 C48       -11.3820   -2.3170   -1.1880 c3        1 MOL     -0.081387
    148 N13       -11.7500   -3.6210   -0.6070 n4        1 MOL     -0.207981
    149 H67        -6.0540   -2.6560    1.8710 hn        1 MOL      0.350883
    150 H68        -6.4610   -3.8080    0.0380 h1        1 MOL      0.062097
    151 H69        -7.4180   -3.3540   -1.9200 hc        1 MOL      0.123811
    152 H70        -7.5570   -1.6490   -1.5920 hc        1 MOL      0.123811
    153 H71        -9.1460   -2.2540    0.3400 hc        1 MOL     -0.099767
    154 H72        -9.1890   -3.8480   -0.4040 hc        1 MOL     -0.099767
    155 H73        -9.8790   -3.1490   -2.4560 hc        1 MOL      0.033863
    156 H74        -9.5860   -1.4100   -2.1200 hc        1 MOL      0.033863
    157 H75       -12.0060   -1.8840   -1.9700 hx        1 MOL      0.106370
    158 H76       -11.2900   -1.5820   -0.3960 hx        1 MOL      0.106370
    159 H77       -12.6700   -3.6080   -0.1820 hn        1 MOL      0.231475
    160 H78       -11.6170   -4.3320   -1.3150 hn        1 MOL      0.231475
    161 H79       -11.1510   -3.8740    0.1580 hn        1 MOL      0.231475
    162 N14        -4.4680   -3.3330   -1.5590 n         1 MOL     -0.631339
    163 C49        -3.3280   -3.0930   -2.3760 c3        1 MOL      0.438746
    164 C50        -2.0710   -2.7660   -1.5980 c         1 MOL      0.058969
    165 O22        -1.3930   -1.8190   -1.7500 o         1 MOL     -0.439412
    166 C51        -3.0410   -4.2770   -3.3060 c3        1 MOL     -0.226503
    167 C52        -4.2120   -4.7310   -4.2460 c3        1 MOL     -0.208639
    168 C53        -4.1480   -3.8780   -5.5230 c         1 MOL      0.722132
    169 O23        -3.4470   -4.2430   -6.4790 o         1 MOL     -0.667154
    170 O24        -4.7330   -2.7810   -5.5450 o         1 MOL     -0.667154
    171 H80        -4.9020   -4.2420   -1.6350 hn        1 MOL      0.315116
    172 H81        -3.6760   -2.2230   -2.9240 h1        1 MOL     -0.034046
    173 H82        -2.5950   -5.0730   -2.7140 hc        1 MOL      0.134677
    174 H83        -2.2740   -3.8770   -3.9840 hc        1 MOL      0.134677
    175 H84        -5.1640   -4.6540   -3.7150 hc        1 MOL      0.013154
    176 H85        -3.9240   -5.7520   -4.4950 hc        1 MOL      0.013154
    177 N15        -1.6040   -3.5290   -0.6540 n         1 MOL     -0.102459
    178 C54        -2.1330   -4.7900   -0.0890 c3        1 MOL     -0.101174
    179 H86        -2.2520   -5.5230   -0.8880 h1        1 MOL      0.039757
    180 H87        -1.4370   -5.1750    0.6560 h1        1 MOL      0.039757
    181 H88        -3.1000   -4.6030    0.3780 h1        1 MOL      0.039757
    182 H89        -0.7260   -3.2030   -0.2620 hn        1 MOL      0.268783
    183 Ca1        -0.4220    0.5780   -1.3050 Ca        1 MOL      1.743192
    184 O25        -2.9930    0.7060   -1.7240 oh        1 MOL     -0.854141
    185 H90        -3.3360    0.5280   -2.5990 ho        1 MOL      0.415968
    186 H91        -3.5090    0.1570   -1.1410 ho        1 MOL      0.415968
    187 O26         1.6550   -0.6720   -2.5250 oh        1 MOL     -0.854141
    188 H92         2.0100   -0.4980   -3.4020 ho        1 MOL      0.415968
    189 H93         2.4060   -1.0040   -2.0230 ho        1 MOL      0.415968
    190 O27        -0.9670    0.1900   -3.8750 oh        1 MOL     -0.854141
    191 H94        -0.4920    0.7590   -4.4730 ho        1 MOL      0.415968
    192 H95        -1.4660   -0.3980   -4.4380 ho        1 MOL      0.415968
@<TRIPOS>BOND
     1    1    2 1   
     2    1    4 1   
     3    1    5 1   
     4    1    6 1   
     5    2    3 2   
     6    2    7 1   
     7    7    8 1   
     8    7   15 1   
     9    8    9 1   
    10    8   11 1   
    11    8   16 1   
    12    9   10 2   
    13    9   19 1   
    14   11   12 1   
    15   11   17 1   
    16   11   18 1   
    17   12   13 1   
    18   12   14 1   
    19   19   20 1   
    20   19   28 1   
    21   20   21 1   
    22   20   23 1   
    23   20   29 1   
    24   21   22 2   
    25   21   41 1   
    26   23   24 1   
    27   23   30 1   
    28   23   31 1   
    29   24   25 1   
    30   24   32 1   
    31   24   33 1   
    32   25   26 1   
    33   25   34 1   
    34   25   35 1   
    35   26   27 1   
    36   26   36 1   
    37   26   37 1   
    38   27   38 1   
    39   27   39 1   
    40   27   40 1   
    41   41   42 1   
    42   41   49 1   
    43   42   43 1   
    44   42   45 1   
    45   42   50 1   
    46   43   44 2   
    47   43   53 1   
    48   45   46 1   
    49   45   51 1   
    50   45   52 1   
    51   46   47 1   
    52   46   48 1   
    53   53   54 1   
    54   53   57 1   
    55   54   55 1   
    56   54   58 1   
    57   54   59 1   
    58   55   56 2   
    59   55   60 1   
    60   60   61 1   
    61   60   68 1   
    62   61   62 1   
    63   61   64 1   
    64   61   69 1   
    65   62   63 2   
    66   62   72 1   
    67   64   65 1   
    68   64   70 1   
    69   64   71 1   
    70   65   66 1   
    71   65   67 1   
    72   72   73 1   
    73   72   76 1   
    74   73   74 1   
    75   73   77 1   
    76   73   78 1   
    77   74   75 2   
    78   74   79 1   
    79   79   80 1   
    80   79   86 1   
    81   80   81 1   
    82   80   83 1   
    83   80   87 1   
    84   81   82 2   
    85   81   93 1   
    86   83   84 1   
    87   83   85 1   
    88   83   88 1   
    89   84   90 1   
    90   84   91 1   
    91   84   92 1   
    92   85   89 1   
    93   93   94 1   
    94   93  101 1   
    95   94   95 1   
    96   94   97 1   
    97   94  102 1   
    98   95   96 2   
    99   95  112 1   
   100   97   98 1   
   101   97   99 1   
   102   97  103 1   
   103   98  100 1   
   104   98  104 1   
   105   98  105 1   
   106   99  106 1   
   107   99  107 1   
   108   99  108 1   
   109  100  109 1   
   110  100  110 1   
   111  100  111 1   
   112  112  113 1   
   113  112  119 1   
   114  113  114 1   
   115  113  116 1   
   116  113  120 1   
   117  114  115 2   
   118  114  126 1   
   119  116  117 1   
   120  116  118 1   
   121  116  121 1   
   122  117  123 1   
   123  117  124 1   
   124  117  125 1   
   125  118  122 1   
   126  126  127 1   
   127  126  133 1   
   128  127  128 1   
   129  127  130 1   
   130  127  134 1   
   131  128  129 2   
   132  128  140 1   
   133  130  131 1   
   134  130  132 1   
   135  130  135 1   
   136  131  137 1   
   137  131  138 1   
   138  131  139 1   
   139  132  136 1   
   140  140  141 1   
   141  140  149 1   
   142  141  142 1   
   143  141  144 1   
   144  141  150 1   
   145  142  143 2   
   146  142  162 1   
   147  144  145 1   
   148  144  151 1   
   149  144  152 1   
   150  145  146 1   
   151  145  153 1   
   152  145  154 1   
   153  146  147 1   
   154  146  155 1   
   155  146  156 1   
   156  147  148 1   
   157  147  157 1   
   158  147  158 1   
   159  148  159 1   
   160  148  160 1   
   161  148  161 1   
   162  162  163 1   
   163  162  171 1   
   164  163  164 1   
   165  163  166 1   
   166  163  172 1   
   167  164  165 2   
   168  164  177 1   
   169  166  167 1   
   170  166  173 1   
   171  166  174 1   
   172  167  168 1   
   173  167  175 1   
   174  167  176 1   
   175  168  169 1   
   176  168  170 1   
   177  177  178 1   
   178  177  182 1   
   179  178  179 1   
   180  178  180 1   
   181  178  181 1   
   182  184  185 1   
   183  184  186 1   
   184  187  188 1   
   185  187  189 1   
   186  190  191 1   
   187  190  192 1   
@<TRIPOS>SUBSTRUCTURE
     1 MOL         1 TEMP              0 ****  ****    0 ROOT
