@<TRIPOS>MOLECULE
MOL
  185   180     1     0     0
SMALL
resp


@<TRIPOS>ATOM
      1 C1          4.5530   -0.9330    5.9330 c3        1 MOL     -0.380582
      2 C2          3.6460   -0.6760    4.6660 c         1 MOL      0.644685
      3 O1          2.5250   -0.2220    4.8060 o         1 MOL     -0.558881
      4 H1          5.4890   -1.3960    5.6210 hc        1 MOL      0.103324
      5 H2          4.7650    0.0160    6.4280 hc        1 MOL      0.103324
      6 H3          4.0340   -1.5950    6.6250 hc        1 MOL      0.103324
      7 N1          4.1130   -1.0710    3.4160 n         1 MOL     -0.474404
      8 C3          3.3720   -0.9060    2.1790 c3        1 MOL      0.078758
      9 C4          3.0450   -2.2070    1.4540 c         1 MOL      0.625989
     10 O2          2.1530   -2.1970    0.5610 o         1 MOL     -0.662758
     11 C5          4.1920    0.0440    1.1760 c3        1 MOL     -0.126592
     12 C6          5.6670   -0.2720    0.9490 c         1 MOL      0.629152
     13 O3          6.5150    0.6340    0.9350 o         1 MOL     -0.630746
     14 O4          5.9590   -1.4770    0.8680 o         1 MOL     -0.630746
     15 H4          5.1020   -1.3070    3.3870 hn        1 MOL      0.322062
     16 H5          2.3790   -0.4800    2.2690 h1        1 MOL      0.070282
     17 H6          4.1320    1.0420    1.6170 hc        1 MOL      0.016939
     18 H7          3.7050   -0.0410    0.2130 hc        1 MOL      0.016939
     19 N2          3.6910   -3.2980    1.8600 n         1 MOL     -0.652812
     20 C7          3.6310   -4.6560    1.2800 c3        1 MOL      0.389154
     21 C8          4.2950   -4.7480   -0.0750 c         1 MOL      0.406875
     22 O5          4.8380   -5.7840   -0.4430 o         1 MOL     -0.561063
     23 C9          4.3550   -5.6780    2.1570 c3        1 MOL     -0.081895
     24 C10         3.9510   -5.6360    3.6550 c3        1 MOL      0.196928
     25 C11         4.7010   -6.5890    4.5850 c3        1 MOL     -0.138841
     26 C12         4.3070   -8.0320    4.3760 c3        1 MOL      0.049259
     27 N3          4.8000   -8.9860    5.3800 n4        1 MOL     -0.308716
     28 H8          4.2930   -3.1730    2.6550 hn        1 MOL      0.267758
     29 H9          2.5780   -4.9330    1.1550 h1        1 MOL     -0.023347
     30 H10         5.4350   -5.5790    2.1530 hc        1 MOL      0.030584
     31 H11         4.1620   -6.6660    1.7460 hc        1 MOL      0.030584
     32 H12         2.8990   -5.9150    3.6140 hc        1 MOL     -0.056502
     33 H13         3.9950   -4.6210    4.0480 hc        1 MOL     -0.056502
     34 H14         4.6250   -6.2770    5.6290 hc        1 MOL      0.055444
     35 H15         5.7650   -6.5700    4.3640 hc        1 MOL      0.055444
     36 H16         4.6910   -8.3470    3.4080 hx        1 MOL      0.082071
     37 H17         3.2110   -8.0350    4.4110 hx        1 MOL      0.082071
     38 H18         4.3860   -9.9060    5.2500 hn        1 MOL      0.318595
     39 H19         5.8100   -9.0280    5.3760 hn        1 MOL      0.318595
     40 H20         4.6580   -8.6630    6.3270 hn        1 MOL      0.318595
     41 N4          4.3810   -3.7140   -0.9430 n         1 MOL     -0.217925
     42 C13         4.8310   -3.7880   -2.3780 c3        1 MOL      0.062758
     43 C14         5.4130   -2.4200   -2.8260 c         1 MOL      0.359920
     44 O6          5.6340   -2.2390   -4.0220 o         1 MOL     -0.511325
     45 C15         3.7250   -4.2190   -3.2870 c3        1 MOL     -0.243583
     46 C16         2.3410   -3.5050   -2.9560 c         1 MOL      0.708390
     47 O7          2.3410   -2.2990   -2.5400 o         1 MOL     -0.717326
     48 O8          1.2400   -4.0420   -2.9010 o         1 MOL     -0.717326
     49 H21         3.8980   -2.8640   -0.6630 hn        1 MOL      0.135370
     50 H22         5.5750   -4.5890   -2.4640 h1        1 MOL      0.110549
     51 H23         3.5690   -5.2990   -3.1860 hc        1 MOL      0.078833
     52 H24         3.9050   -4.0840   -4.3530 hc        1 MOL      0.078833
     53 N5          5.6090   -1.3950   -2.0110 n         1 MOL     -0.139615
     54 C17         5.7940   -0.0280   -2.3680 c3        1 MOL      0.090999
     55 C18         7.0870    0.4150   -3.0350 c         1 MOL      0.607462
     56 O9          8.0250   -0.3790   -3.2510 o         1 MOL     -0.554027
     57 H25         5.5760   -1.6790   -1.0420 hn        1 MOL      0.085485
     58 H26         5.7730    0.5680   -1.4580 h1        1 MOL      0.024075
     59 H27         4.9930    0.2040   -3.0650 h1        1 MOL      0.024075
     60 N6          7.2480    1.6570   -3.3710 n         1 MOL     -0.580664
     61 C19         6.3610    2.7530   -3.0040 c3        1 MOL      0.206434
     62 C20         6.5280    3.2070   -1.5370 c         1 MOL      0.464404
     63 O10         7.6330    3.2290   -1.0300 o         1 MOL     -0.480387
     64 C21         6.6470    3.8900   -4.0240 c3        1 MOL     -0.185410
     65 C22         6.2700    5.2650   -3.6820 c         1 MOL      0.652560
     66 N7          5.0680    5.5930   -3.9980 n         1 MOL     -0.760818
     67 O11         7.1050    6.0310   -3.2180 o         1 MOL     -0.548123
     68 H28         8.0640    1.9020   -3.9120 hn        1 MOL      0.326479
     69 H29         5.3340    2.4510   -3.1980 h1        1 MOL      0.030452
     70 H30         6.2330    3.5760   -4.9750 hc        1 MOL      0.056615
     71 H31         7.7290    3.9880   -4.1520 hc        1 MOL      0.056615
     72 H32         4.4050    4.9890   -4.4690 hn        1 MOL      0.353109
     73 H33         4.8100    6.5520   -3.7820 hn        1 MOL      0.353109
     74 N8          5.4700    3.5090   -0.7910 n         1 MOL     -0.464107
     75 C23         4.0690    3.4090   -1.1290 c3        1 MOL      0.050939
     76 C24         3.1340    4.2510   -0.3150 c         1 MOL      0.732438
     77 O12         3.5510    5.2270    0.2660 o         1 MOL     -0.541683
     78 H34         5.7720    3.8010    0.1270 hn        1 MOL      0.313401
     79 H35         3.8160    2.3640   -1.0340 h1        1 MOL     -0.015079
     80 H36         3.8450    3.6350   -2.1760 h1        1 MOL     -0.015079
     81 N9          1.8450    3.9890   -0.3830 n         1 MOL     -0.659465
     82 C25         0.7500    4.3780    0.4720 c3        1 MOL      0.109500
     83 C26        -0.4580    3.5540    0.4510 c         1 MOL      0.529916
     84 O13        -0.7910    2.9090   -0.5170 o         1 MOL     -0.468411
     85 C27         0.4630    5.8420    0.2350 c3        1 MOL     -0.136065
     86 C28        -0.1350    6.7100    1.3830 ca        1 MOL      0.123010
     87 C29        -1.2180    7.5230    1.1470 ca        1 MOL     -0.224910
     88 C30         0.3010    6.6450    2.6760 ca        1 MOL     -0.224910
     89 C31        -1.9080    8.2550    2.1510 ca        1 MOL     -0.122831
     90 C32        -0.3640    7.2660    3.6820 ca        1 MOL     -0.122831
     91 C33        -1.4840    8.0730    3.4420 ca        1 MOL      0.231016
     92 O14        -2.1710    8.7300    4.4730 oh        1 MOL     -0.516513
     93 H37         1.5730    3.2760   -1.0430 hn        1 MOL      0.303582
     94 H38         1.1590    4.2020    1.4740 h1        1 MOL      0.058113
     95 H39        -0.2040    5.8520   -0.6240 hc        1 MOL      0.090968
     96 H40         1.3750    6.3710   -0.0630 hc        1 MOL      0.090968
     97 H41        -1.5970    7.6460    0.1430 ha        1 MOL      0.133166
     98 H42         1.1680    6.0620    2.9590 ha        1 MOL      0.133166
     99 H43        -2.6940    8.9750    1.9820 ha        1 MOL      0.117144
    100 H44        -0.0800    7.1590    4.7250 ha        1 MOL      0.117144
    101 H45        -2.0660    8.4530    5.3920 ho        1 MOL      0.374624
    102 N10        -1.1410    3.5910    1.6040 n         1 MOL     -0.418749
    103 C34        -2.4660    2.9920    1.7630 c3        1 MOL     -0.275533
    104 C35        -3.5090    3.3060    0.7270 c         1 MOL      0.783008
    105 O15        -3.4550    4.3660    0.0840 o         1 MOL     -0.541881
    106 C36        -3.0110    3.3930    3.1660 c3        1 MOL      0.259681
    107 C37        -2.7340    2.2410    4.1910 c3        1 MOL      0.018553
    108 C38        -2.5440    4.8050    3.6940 c3        1 MOL     -0.120354
    109 C39        -3.6610    2.4510    5.4480 c3        1 MOL     -0.291126
    110 H46        -0.7290    4.0570    2.3960 hn        1 MOL      0.258461
    111 H47        -2.3220    1.9050    1.7350 h1        1 MOL      0.069800
    112 H48        -4.0970    3.3870    3.0980 hc        1 MOL     -0.010954
    113 H49        -1.6970    2.2750    4.5180 hc        1 MOL      0.014967
    114 H50        -3.0690    1.3100    3.7330 hc        1 MOL      0.014967
    115 H51        -3.1260    5.2230    4.5180 hc        1 MOL      0.031440
    116 H52        -1.5070    4.8280    4.0330 hc        1 MOL      0.031440
    117 H53        -2.6940    5.5350    2.8940 hc        1 MOL      0.031440
    118 H54        -3.5430    1.5150    5.9890 hc        1 MOL      0.072274
    119 H55        -3.2360    3.3300    5.9270 hc        1 MOL      0.072274
    120 H56        -4.6890    2.6090    5.1070 hc        1 MOL      0.072274
    121 N11        -4.4730    2.4140    0.3700 n         1 MOL     -0.602841
    122 C40        -5.4580    2.7440   -0.6150 c3        1 MOL     -0.050422
    123 C41        -5.9100    1.5540   -1.4020 c         1 MOL      0.802414
    124 O16        -5.8140    0.4220   -0.8960 o         1 MOL     -0.484378
    125 C42        -6.6980    3.2700    0.1030 c3        1 MOL      0.039855
    126 O17        -7.0080    2.5680    1.2540 oh        1 MOL     -0.583722
    127 H57        -4.5240    1.5400    0.8770 hn        1 MOL      0.355241
    128 H58        -5.2020    3.4880   -1.3650 h1        1 MOL      0.105372
    129 H59        -7.5460    3.2100   -0.5830 h1        1 MOL      0.039332
    130 H60        -6.6290    4.3020    0.4470 h1        1 MOL      0.039332
    131 H61        -7.7150    3.0340    1.7220 ho        1 MOL      0.418711
    132 N12        -6.4500    1.7460   -2.6490 n         1 MOL     -0.732251
    133 C43        -6.8470    0.7210   -3.6770 c3        1 MOL      0.313464
    134 C44        -7.5800   -0.5730   -3.1750 c         1 MOL      0.391548
    135 O18        -7.2650   -1.6460   -3.7640 o         1 MOL     -0.469177
    136 C45        -5.6550    0.4360   -4.5890 c3        1 MOL     -0.335886
    137 H62        -6.6130    2.6800   -2.9980 hn        1 MOL      0.330367
    138 H63        -7.5310    1.2440   -4.3410 h1        1 MOL      0.035872
    139 H64        -6.0130   -0.1620   -5.4300 hc        1 MOL      0.104263
    140 H65        -5.1790    1.3490   -4.9610 hc        1 MOL      0.104263
    141 H66        -4.9140   -0.1300   -4.0250 hc        1 MOL      0.104263
    142 N13        -8.5370   -0.5770   -2.2780 n         1 MOL     -0.590471
    143 C46        -9.4250   -1.6820   -1.8510 c3        1 MOL      0.426402
    144 C47        -8.6680   -2.8920   -1.2350 c         1 MOL      0.253189
    145 O19        -9.2970   -3.9150   -1.0040 o         1 MOL     -0.483075
    146 C48       -10.5170   -2.0240   -2.9070 c3        1 MOL     -0.362977
    147 H67        -8.6110    0.3070   -1.7990 hn        1 MOL      0.307228
    148 H68        -9.9690   -1.2690   -1.0090 h1        1 MOL     -0.010920
    149 H69       -11.2240   -2.7310   -2.4700 hc        1 MOL      0.105905
    150 H70       -11.0030   -1.0990   -3.2020 hc        1 MOL      0.105905
    151 H71       -10.0010   -2.5630   -3.7060 hc        1 MOL      0.105905
    152 N14        -7.4180   -2.7130   -0.9170 n         1 MOL     -0.004189
    153 C49        -6.5620   -3.6980   -0.2410 c3        1 MOL     -0.031461
    154 C50        -7.0980   -4.1020    1.1490 c         1 MOL      0.451118
    155 O20        -7.2440   -5.2720    1.4250 o         1 MOL     -0.499498
    156 C51        -5.1470   -3.1050   -0.2140 c3        1 MOL     -0.089214
    157 C52        -4.5630   -2.9030   -1.6460 c3        1 MOL     -0.130489
    158 C53        -3.0400   -2.7530   -1.5520 c         1 MOL      0.788718
    159 O21        -2.6070   -1.6180   -1.3080 o         1 MOL     -0.755793
    160 O22        -2.2510   -3.7270   -1.7380 o         1 MOL     -0.755793
    161 H72        -7.0020   -1.8620   -1.2570 hn        1 MOL      0.028723
    162 H73        -6.4370   -4.6260   -0.7980 h1        1 MOL      0.105204
    163 H74        -4.4250   -3.7150    0.3420 hc        1 MOL      0.012791
    164 H75        -5.2050   -2.1280    0.2620 hc        1 MOL      0.012791
    165 H76        -4.9760   -2.0010   -2.1110 hc        1 MOL      0.049771
    166 H77        -4.7770   -3.7280   -2.3290 hc        1 MOL      0.049771
    167 N15        -7.5180   -3.1640    2.0310 n         1 MOL     -0.304338
    168 C54        -8.2690   -3.5920    3.2260 c3        1 MOL     -0.237631
    169 H78        -9.2270   -4.0140    2.9210 h1        1 MOL      0.111987
    170 H79        -7.6950   -4.3460    3.7660 h1        1 MOL      0.111987
    171 H80        -8.4410   -2.7340    3.8750 h1        1 MOL      0.111987
    172 H81        -7.5320   -2.2050    1.7100 hn        1 MOL      0.236148
    173 Ca1         0.0560   -2.5700   -1.1310 Ca        1 MOL      1.749066
    174 O23        -0.8940   -1.8490   -3.7700 oh        1 MOL     -0.825479
    175 H82        -1.1310   -0.9310   -3.9300 ho        1 MOL      0.407001
    176 H83        -0.6600   -2.1890   -4.6420 ho        1 MOL      0.407001
    177 O24        -0.0280   -5.0850   -0.2130 oh        1 MOL     -0.825479
    178 H84         0.3300   -5.9610   -0.0260 ho        1 MOL      0.407001
    179 H85        -0.7810   -5.0030    0.3690 ho        1 MOL      0.407001
    180 O25         0.1790    0.0990   -0.9310 oh        1 MOL     -0.825479
    181 H86         0.3820    0.9270   -1.3730 ho        1 MOL      0.407001
    182 H87         0.1820    0.3200    0.0000 ho        1 MOL      0.407001
    183 O26        -0.6770   -2.5280    1.3140 oh        1 MOL     -0.825479
    184 H88        -1.5200   -2.7880    1.6860 ho        1 MOL      0.407001
    185 H89        -0.2320   -2.0810    2.0340 ho        1 MOL      0.407001
@<TRIPOS>BOND
     1    1    2 1   
     2    1    4 1   
     3    1    5 1   
     4    1    6 1   
     5    2    3 2   
     6    2    7 1   
     7    7    8 1   
     8    7   15 1   
     9    8    9 1   
    10    8   11 1   
    11    8   16 1   
    12    9   10 2   
    13    9   19 1   
    14   11   12 1   
    15   11   17 1   
    16   11   18 1   
    17   12   13 1   
    18   12   14 1   
    19   19   20 1   
    20   19   28 1   
    21   20   21 1   
    22   20   23 1   
    23   20   29 1   
    24   21   22 2   
    25   21   41 1   
    26   23   24 1   
    27   23   30 1   
    28   23   31 1   
    29   24   25 1   
    30   24   32 1   
    31   24   33 1   
    32   25   26 1   
    33   25   34 1   
    34   25   35 1   
    35   26   27 1   
    36   26   36 1   
    37   26   37 1   
    38   27   38 1   
    39   27   39 1   
    40   27   40 1   
    41   41   42 1   
    42   41   49 1   
    43   42   43 1   
    44   42   45 1   
    45   42   50 1   
    46   43   44 2   
    47   43   53 1   
    48   45   46 1   
    49   45   51 1   
    50   45   52 1   
    51   46   47 1   
    52   46   48 1   
    53   53   54 1   
    54   53   57 1   
    55   54   55 1   
    56   54   58 1   
    57   54   59 1   
    58   55   56 2   
    59   55   60 1   
    60   60   61 1   
    61   60   68 1   
    62   61   62 1   
    63   61   64 1   
    64   61   69 1   
    65   62   63 2   
    66   62   74 1   
    67   64   65 1   
    68   64   70 1   
    69   64   71 1   
    70   65   66 1   
    71   65   67 2   
    72   66   72 1   
    73   66   73 1   
    74   74   75 1   
    75   74   78 1   
    76   75   76 1   
    77   75   79 1   
    78   75   80 1   
    79   76   77 2   
    80   76   81 1   
    81   81   82 1   
    82   81   93 1   
    83   82   83 1   
    84   82   85 1   
    85   82   94 1   
    86   83   84 2   
    87   83  102 1   
    88   85   86 1   
    89   85   95 1   
    90   85   96 1   
    91   86   87 ar  
    92   86   88 ar  
    93   87   89 ar  
    94   87   97 1   
    95   88   90 ar  
    96   88   98 1   
    97   89   91 ar  
    98   89   99 1   
    99   90   91 ar  
   100   90  100 1   
   101   91   92 1   
   102   92  101 1   
   103  102  103 1   
   104  102  110 1   
   105  103  104 1   
   106  103  106 1   
   107  103  111 1   
   108  104  105 2   
   109  104  121 1   
   110  106  107 1   
   111  106  108 1   
   112  106  112 1   
   113  107  109 1   
   114  107  113 1   
   115  107  114 1   
   116  108  115 1   
   117  108  116 1   
   118  108  117 1   
   119  109  118 1   
   120  109  119 1   
   121  109  120 1   
   122  121  122 1   
   123  121  127 1   
   124  122  123 1   
   125  122  125 1   
   126  122  128 1   
   127  123  124 2   
   128  123  132 1   
   129  125  126 1   
   130  125  129 1   
   131  125  130 1   
   132  126  131 1   
   133  132  133 1   
   134  132  137 1   
   135  133  134 1   
   136  133  136 1   
   137  133  138 1   
   138  134  135 2   
   139  134  142 1   
   140  136  139 1   
   141  136  140 1   
   142  136  141 1   
   143  142  143 1   
   144  142  147 1   
   145  143  144 1   
   146  143  146 1   
   147  143  148 1   
   148  144  145 2   
   149  144  152 1   
   150  146  149 1   
   151  146  150 1   
   152  146  151 1   
   153  152  153 1   
   154  152  161 1   
   155  153  154 1   
   156  153  156 1   
   157  153  162 1   
   158  154  155 2   
   159  154  167 1   
   160  156  157 1   
   161  156  163 1   
   162  156  164 1   
   163  157  158 1   
   164  157  165 1   
   165  157  166 1   
   166  158  159 1   
   167  158  160 1   
   168  167  168 1   
   169  167  172 1   
   170  168  169 1   
   171  168  170 1   
   172  168  171 1   
   173  174  175 1   
   174  174  176 1   
   175  177  178 1   
   176  177  179 1   
   177  180  181 1   
   178  180  182 1   
   179  183  184 1   
   180  183  185 1   
@<TRIPOS>SUBSTRUCTURE
     1 MOL         1 TEMP              0 ****  ****    0 ROOT
