@<TRIPOS>MOLECULE
MOL
  201   193     1     0     0
SMALL
resp


@<TRIPOS>ATOM
      1 C1         -4.8650   -5.2560    0.4720 c3        1 MOL     -0.470084
      2 C2         -4.7680   -3.7990   -0.2500 c         1 MOL      0.624666
      3 O1         -3.6700   -3.2880   -0.3660 o         1 MOL     -0.538363
      4 H1         -4.9190   -5.1230    1.5520 hc        1 MOL      0.125413
      5 H2         -5.7590   -5.7750    0.1260 hc        1 MOL      0.125413
      6 H3         -3.9830   -5.8450    0.2220 hc        1 MOL      0.125413
      7 N1         -5.9230   -3.2500   -0.7510 n         1 MOL     -0.351473
      8 C3         -5.9460   -2.0740   -1.6200 c3        1 MOL     -0.180690
      9 C4         -5.9490   -0.7830   -0.8170 c         1 MOL      0.535245
     10 O2         -6.2850   -0.8080    0.3900 o         1 MOL     -0.495936
     11 C5         -7.0830   -2.2600   -2.6860 c3        1 MOL      0.135525
     12 C6         -8.4910   -2.7690   -2.2690 c         1 MOL      0.669376
     13 O3         -9.3980   -2.4070   -3.1100 o         1 MOL     -0.705316
     14 O4         -8.6390   -3.5000   -1.2560 o         1 MOL     -0.705316
     15 H4         -6.7870   -3.7360   -0.5480 hn        1 MOL      0.172561
     16 H5         -5.0040   -2.0600   -2.1830 h1        1 MOL      0.074659
     17 H6         -6.7820   -2.8960   -3.5150 hc        1 MOL     -0.007308
     18 H7         -7.2440   -1.2820   -3.1320 hc        1 MOL     -0.007308
     19 N2         -5.6150    0.3470   -1.4350 n         1 MOL     -0.328037
     20 C7         -5.4370    1.7510   -0.7580 c3        1 MOL      0.194475
     21 C8         -6.7430    2.4080   -0.2270 c         1 MOL      0.190877
     22 O5         -6.8930    3.6050   -0.2690 o         1 MOL     -0.452834
     23 C9         -4.6520    2.6530   -1.6740 c3        1 MOL     -0.034780
     24 C10        -5.2050    2.9930   -3.0320 c3        1 MOL     -0.128327
     25 C11        -4.0620    3.6310   -3.7730 c3        1 MOL      0.073399
     26 C12        -4.5520    4.0000   -5.1680 c3        1 MOL     -0.038240
     27 N3         -3.4990    4.3890   -6.0980 n4        1 MOL     -0.121789
     28 H8         -5.5550    0.4030   -2.4420 hn        1 MOL      0.219587
     29 H9         -4.7970    1.5090    0.0920 h1        1 MOL      0.016150
     30 H10        -3.7130    2.1260   -1.8190 hc        1 MOL      0.058628
     31 H11        -4.4630    3.6030   -1.1830 hc        1 MOL      0.058628
     32 H12        -6.0400    3.6860   -2.9120 hc        1 MOL      0.055171
     33 H13        -5.5310    2.0620   -3.4870 hc        1 MOL      0.055171
     34 H14        -3.2240    2.9240   -3.7840 hc        1 MOL      0.017820
     35 H15        -3.6460    4.4870   -3.2490 hc        1 MOL      0.017820
     36 H16        -5.1920    4.8690   -4.9950 hx        1 MOL      0.078930
     37 H17        -5.1660    3.2050   -5.5960 hx        1 MOL      0.078930
     38 H18        -3.9070    4.6940   -6.9630 hn        1 MOL      0.206454
     39 H19        -3.0600    5.2060   -5.7080 hn        1 MOL      0.206454
     40 H20        -2.7340    3.7370   -6.2260 hn        1 MOL      0.206454
     41 N4         -7.7080    1.6500    0.2170 n         1 MOL     -0.267692
     42 C13        -8.8660    2.2150    0.9310 c3        1 MOL      0.414754
     43 C14        -8.4600    2.0630    2.4270 c         1 MOL      0.443380
     44 O6         -7.9910    0.9970    2.8730 o         1 MOL     -0.513853
     45 C15       -10.2190    1.5270    0.4820 c3        1 MOL     -0.094343
     46 C16       -10.2360    0.0140    0.3520 c         1 MOL      0.539158
     47 O7         -9.5210   -0.6180   -0.4730 o         1 MOL     -0.701963
     48 O8        -10.8050   -0.6110    1.2460 o         1 MOL     -0.701963
     49 H21        -7.5940    0.6500    0.2250 hn        1 MOL      0.166723
     50 H22        -9.0250    3.2680    0.6900 h1        1 MOL     -0.009863
     51 H23       -10.3610    1.9780   -0.5030 hc        1 MOL      0.015209
     52 H24       -11.0040    1.7860    1.1920 hc        1 MOL      0.015209
     53 N5         -8.4890    3.0970    3.2560 n         1 MOL     -0.557958
     54 C17        -8.5610    4.5130    2.8730 c3        1 MOL     -0.001394
     55 C18        -7.2180    4.9890    2.3110 c         1 MOL      0.433557
     56 O9         -7.2120    5.9570    1.5750 o         1 MOL     -0.546759
     57 H25        -8.1320    2.9430    4.1850 hn        1 MOL      0.352821
     58 H26        -8.7100    5.1130    3.7700 h1        1 MOL      0.073552
     59 H27        -9.3990    4.6620    2.1950 h1        1 MOL      0.073552
     60 N6         -6.1710    4.2730    2.6050 n         1 MOL     -0.158743
     61 C19        -4.8150    4.5050    2.0630 c3        1 MOL     -0.058761
     62 C20        -3.9210    3.2080    2.0900 c         1 MOL      0.585344
     63 O10        -4.2980    2.2560    2.8900 o         1 MOL     -0.515917
     64 C21        -4.2280    5.6220    2.9390 c3        1 MOL     -0.124663
     65 C22        -4.3920    5.3810    4.3900 c         1 MOL      0.672342
     66 O11        -3.5740    4.5800    4.9230 o         1 MOL     -0.640188
     67 O12        -5.2730    5.9940    5.0560 o         1 MOL     -0.640188
     68 H28        -6.3020    3.4930    3.2290 hn        1 MOL      0.211330
     69 H29        -4.8520    4.8320    1.0180 h1        1 MOL      0.059986
     70 H30        -4.6120    6.6110    2.6840 hc        1 MOL      0.021933
     71 H31        -3.1540    5.6350    2.7670 hc        1 MOL      0.021933
     72 N7         -2.8200    3.1090    1.3060 n         1 MOL     -0.405232
     73 C23        -1.8980    1.9330    1.2910 c3        1 MOL     -0.041370
     74 C24        -1.3870    1.5420   -0.1170 c         1 MOL      0.569141
     75 O13        -1.3050    2.4210   -1.0400 o         1 MOL     -0.566351
     76 H32        -2.7290    3.9050    0.6880 hn        1 MOL      0.249187
     77 H33        -2.3960    1.0980    1.7920 h1        1 MOL      0.097727
     78 H34        -1.0050    1.9970    1.8980 h1        1 MOL      0.097727
     79 N8         -0.9520    0.2740   -0.2470 n         1 MOL     -0.485940
     80 C25        -0.2240   -0.3900   -1.4170 c3        1 MOL      0.085735
     81 C26         0.8400   -1.3350   -0.8990 c         1 MOL      0.517833
     82 O14         1.0650   -1.4060    0.3280 o         1 MOL     -0.505338
     83 C27        -1.1910   -1.1000   -2.3330 c3        1 MOL      0.117628
     84 C28        -2.3660   -0.2750   -2.8770 c3        1 MOL     -0.146787
     85 O15        -0.5410   -1.5830   -3.5170 oh        1 MOL     -0.606437
     86 H35        -1.0730   -0.3240    0.5560 hn        1 MOL      0.292131
     87 H36         0.2790    0.4060   -1.9680 h1        1 MOL      0.064731
     88 H37        -1.5630   -1.9950   -1.8490 h1        1 MOL      0.083202
     89 H38        -1.1620   -1.4390   -4.2280 ho        1 MOL      0.399987
     90 H39        -3.0060    0.0530   -2.0550 hc        1 MOL      0.028933
     91 H40        -1.8420    0.5580   -3.3430 hc        1 MOL      0.028933
     92 H41        -2.9700   -0.7260   -3.6590 hc        1 MOL      0.028933
     93 N9          1.6850   -1.9230   -1.7960 n         1 MOL     -0.223256
     94 C29         2.8100   -2.7380   -1.3860 c3        1 MOL      0.050876
     95 C30         4.0380   -1.9170   -0.8530 c         1 MOL      0.496620
     96 O16         4.6500   -2.3520    0.1110 o         1 MOL     -0.524838
     97 C31         3.0570   -3.8600   -2.5010 c3        1 MOL      0.082200
     98 C32         1.7650   -4.5550   -3.0600 c3        1 MOL     -0.227739
     99 C33         4.1140   -4.7620   -1.8750 c3        1 MOL     -0.346890
    100 C34         0.9880   -5.2870   -2.0320 c3        1 MOL     -0.061450
    101 H42         1.4380   -1.8060   -2.7600 hn        1 MOL      0.187847
    102 H43         2.4810   -3.2730   -0.4960 h1        1 MOL      0.060222
    103 H44         3.5520   -3.3640   -3.3270 hc        1 MOL      0.004679
    104 H45         1.9720   -5.2910   -3.8310 hc        1 MOL      0.078532
    105 H46         1.1560   -3.7850   -3.5410 hc        1 MOL      0.078532
    106 H47         4.3270   -5.5460   -2.5950 hc        1 MOL      0.101763
    107 H48         4.9750   -4.2870   -1.4060 hc        1 MOL      0.101763
    108 H49         3.7610   -5.4170   -1.0650 hc        1 MOL      0.101763
    109 H50         0.7500   -4.5550   -1.2610 hc        1 MOL      0.032165
    110 H51         0.0670   -5.8020   -2.3120 hc        1 MOL      0.032165
    111 H52         1.5430   -6.1340   -1.6150 hc        1 MOL      0.032165
    112 N10         4.3810   -0.8380   -1.4770 n         1 MOL     -0.428514
    113 C35         5.4880    0.1520   -1.1420 c3        1 MOL      0.042768
    114 C36         6.3480    0.6040   -2.3010 c         1 MOL      0.760842
    115 O17         6.0120    0.6310   -3.4440 o         1 MOL     -0.553869
    116 C37         4.7860    1.3400   -0.4630 c3        1 MOL      0.263295
    117 C38         3.7880    2.1140   -1.4190 c3        1 MOL     -0.162363
    118 O18         4.1080    0.9350    0.7290 oh        1 MOL     -0.561788
    119 H53         3.7860   -0.5350   -2.2380 hn        1 MOL      0.193952
    120 H54         6.1170   -0.3360   -0.4060 h1        1 MOL      0.067474
    121 H55         5.5810    1.9940   -0.1070 h1        1 MOL     -0.019784
    122 H56         4.7830    0.4640    1.2290 ho        1 MOL      0.396905
    123 H57         3.1260    1.3880   -1.9000 hc        1 MOL      0.053226
    124 H58         3.2090    2.9100   -0.9520 hc        1 MOL      0.053226
    125 H59         4.3670    2.5520   -2.2270 hc        1 MOL      0.053226
    126 N11         7.5820    0.9530   -1.9560 n         1 MOL     -0.708254
    127 C39         8.6390    1.1980   -2.8950 c3        1 MOL      0.075113
    128 C40        10.0090    0.5400   -2.4290 c         1 MOL      0.640438
    129 O19        10.6130   -0.1490   -3.2500 o         1 MOL     -0.563536
    130 C41         8.8440    2.7890   -3.0060 c3        1 MOL      0.227384
    131 C42         9.9590    3.2980   -3.8340 c3        1 MOL     -0.511987
    132 O20         9.0940    3.3550   -1.6760 oh        1 MOL     -0.624532
    133 H60         7.8090    1.2800   -1.0330 hn        1 MOL      0.288112
    134 H61         8.5160    0.8290   -3.9120 h1        1 MOL      0.098629
    135 H62         7.9210    3.2680   -3.3420 h1        1 MOL      0.052964
    136 H63         8.6350    4.1990   -1.6310 ho        1 MOL      0.407226
    137 H64        10.7980    2.6090   -3.7870 hc        1 MOL      0.140333
    138 H65         9.6810    3.3220   -4.8920 hc        1 MOL      0.140333
    139 H66        10.1180    4.3190   -3.4790 hc        1 MOL      0.140333
    140 N12        10.4090    0.7200   -1.1460 n         1 MOL     -0.360867
    141 C43        11.4220   -0.0720   -0.4260 c3        1 MOL     -0.021414
    142 C44        11.0170   -0.2980    1.0020 c         1 MOL      0.475536
    143 O21        10.0070    0.2110    1.4000 o         1 MOL     -0.459860
    144 C45        12.7370    0.5320   -0.5940 c3        1 MOL     -0.032231
    145 C46        13.0540    1.9160   -0.1050 c3        1 MOL     -0.121030
    146 C47        14.4280    2.3690   -0.7190 c3        1 MOL     -0.056878
    147 C48        14.5890    3.8740   -0.3840 c3        1 MOL      0.016134
    148 N13        15.6510    4.7090   -1.0010 n4        1 MOL     -0.172409
    149 H67         9.8760    1.3730   -0.5840 hn        1 MOL      0.255240
    150 H68        11.4450   -1.0940   -0.8070 h1        1 MOL      0.089216
    151 H69        12.9670    0.4360   -1.6530 hc        1 MOL      0.013037
    152 H70        13.4090   -0.1760   -0.1060 hc        1 MOL      0.013037
    153 H71        13.2510    1.9230    0.9650 hc        1 MOL      0.073335
    154 H72        12.1860    2.5090   -0.3980 hc        1 MOL      0.073335
    155 H73        14.4930    2.1660   -1.7860 hc        1 MOL      0.063170
    156 H74        15.1730    1.7830   -0.1840 hc        1 MOL      0.063170
    157 H75        14.7880    3.8440    0.6930 hx        1 MOL      0.072975
    158 H76        13.6180    4.3490   -0.4990 hx        1 MOL      0.072975
    159 H77        15.6310    5.6930   -0.7650 hn        1 MOL      0.223933
    160 H78        16.5630    4.2830   -0.9560 hn        1 MOL      0.223933
    161 H79        15.4800    4.7020   -1.9940 hn        1 MOL      0.223933
    162 N14        11.7700   -1.2220    1.6490 n         1 MOL     -0.391484
    163 C49        11.5320   -1.6300    3.0380 c3        1 MOL      0.005676
    164 C50        10.0590   -1.9660    3.3500 c         1 MOL      0.362421
    165 O22         9.5140   -1.3640    4.2480 o         1 MOL     -0.512596
    166 C51        12.4870   -2.7140    3.5520 c3        1 MOL      0.100424
    167 C52        13.9100   -2.1520    3.7540 c3        1 MOL     -0.308007
    168 C53        14.7950   -3.1760    4.4280 c         1 MOL      0.671567
    169 O23        15.2140   -4.1540    3.7200 o         1 MOL     -0.637041
    170 O24        14.8580   -3.2010    5.6640 o         1 MOL     -0.637041
    171 H80        12.6160   -1.5750    1.2260 hn        1 MOL      0.298565
    172 H81        11.7850   -0.7900    3.6780 h1        1 MOL      0.076328
    173 H82        12.4180   -3.6610    3.0080 hc        1 MOL      0.053505
    174 H83        12.0680   -3.0520    4.4980 hc        1 MOL      0.053505
    175 H84        13.8300   -1.2300    4.3230 hc        1 MOL      0.043673
    176 H85        14.3190   -1.9570    2.7600 hc        1 MOL      0.043673
    177 N15         9.3970   -2.8360    2.6280 n         1 MOL     -0.321969
    178 C54         9.9120   -3.9840    1.7800 c3        1 MOL      0.065688
    179 H86         9.9380   -4.8940    2.3790 h1        1 MOL      0.018711
    180 H87         9.2520   -4.1300    0.9250 h1        1 MOL      0.018711
    181 H88        10.9180   -3.7530    1.4290 h1        1 MOL      0.018711
    182 H89         8.4090   -2.8010    2.8200 hn        1 MOL      0.288164
    183 Ca1       -10.1840   -3.1460    0.7260 Ca        1 MOL      1.724293
    184 O25        -8.0190   -2.1110    1.9430 oh        1 MOL     -0.793178
    185 H90        -7.6280   -1.5370    1.2990 ho        1 MOL      0.395727
    186 H91        -7.2820   -2.5560    2.3630 ho        1 MOL      0.395727
    187 O26       -11.1950   -5.4780   -0.1030 oh        1 MOL     -0.793178
    188 H92       -11.2590   -5.7500   -1.0110 ho        1 MOL      0.395727
    189 H93       -11.6260   -6.1750    0.3930 ho        1 MOL      0.395727
    190 O27        -8.8660   -5.2150    1.6790 oh        1 MOL     -0.793178
    191 H94        -8.1750   -4.9830    2.3030 ho        1 MOL      0.395727
    192 H95        -8.7530   -6.1510    1.5290 ho        1 MOL      0.395727
    193 O28       -10.3960   -2.8610    3.4420 oh        1 MOL     -0.793178
    194 H96       -10.0180   -1.9810    3.5020 ho        1 MOL      0.395727
    195 H97       -10.3750   -3.1960    4.3310 ho        1 MOL      0.395727
    196 O29       -11.4190   -2.8300   -1.6120 oh        1 MOL     -0.793178
    197 H98       -10.6790   -2.5170   -2.1350 ho        1 MOL      0.395727
    198 H99       -12.0250   -3.1820   -2.2630 ho        1 MOL      0.395727
    199 O30       -12.8820   -3.1990    1.5160 oh        1 MOL     -0.793178
    200 H100      -13.3420   -3.1210    2.3590 ho        1 MOL      0.395727
    201 H101      -13.5390   -2.9960    0.8640 ho        1 MOL      0.395727
@<TRIPOS>BOND
     1    1    2 1   
     2    1    4 1   
     3    1    5 1   
     4    1    6 1   
     5    2    3 2   
     6    2    7 1   
     7    7    8 1   
     8    7   15 1   
     9    8    9 1   
    10    8   11 1   
    11    8   16 1   
    12    9   10 2   
    13    9   19 1   
    14   11   12 1   
    15   11   17 1   
    16   11   18 1   
    17   12   13 1   
    18   12   14 1   
    19   19   20 1   
    20   19   28 1   
    21   20   21 1   
    22   20   23 1   
    23   20   29 1   
    24   21   22 2   
    25   21   41 1   
    26   23   24 1   
    27   23   30 1   
    28   23   31 1   
    29   24   25 1   
    30   24   32 1   
    31   24   33 1   
    32   25   26 1   
    33   25   34 1   
    34   25   35 1   
    35   26   27 1   
    36   26   36 1   
    37   26   37 1   
    38   27   38 1   
    39   27   39 1   
    40   27   40 1   
    41   41   42 1   
    42   41   49 1   
    43   42   43 1   
    44   42   45 1   
    45   42   50 1   
    46   43   44 2   
    47   43   53 1   
    48   45   46 1   
    49   45   51 1   
    50   45   52 1   
    51   46   47 1   
    52   46   48 1   
    53   53   54 1   
    54   53   57 1   
    55   54   55 1   
    56   54   58 1   
    57   54   59 1   
    58   55   56 2   
    59   55   60 1   
    60   60   61 1   
    61   60   68 1   
    62   61   62 1   
    63   61   64 1   
    64   61   69 1   
    65   62   63 2   
    66   62   72 1   
    67   64   65 1   
    68   64   70 1   
    69   64   71 1   
    70   65   66 1   
    71   65   67 1   
    72   72   73 1   
    73   72   76 1   
    74   73   74 1   
    75   73   77 1   
    76   73   78 1   
    77   74   75 2   
    78   74   79 1   
    79   79   80 1   
    80   79   86 1   
    81   80   81 1   
    82   80   83 1   
    83   80   87 1   
    84   81   82 2   
    85   81   93 1   
    86   83   84 1   
    87   83   85 1   
    88   83   88 1   
    89   84   90 1   
    90   84   91 1   
    91   84   92 1   
    92   85   89 1   
    93   93   94 1   
    94   93  101 1   
    95   94   95 1   
    96   94   97 1   
    97   94  102 1   
    98   95   96 2   
    99   95  112 1   
   100   97   98 1   
   101   97   99 1   
   102   97  103 1   
   103   98  100 1   
   104   98  104 1   
   105   98  105 1   
   106   99  106 1   
   107   99  107 1   
   108   99  108 1   
   109  100  109 1   
   110  100  110 1   
   111  100  111 1   
   112  112  113 1   
   113  112  119 1   
   114  113  114 1   
   115  113  116 1   
   116  113  120 1   
   117  114  115 2   
   118  114  126 1   
   119  116  117 1   
   120  116  118 1   
   121  116  121 1   
   122  117  123 1   
   123  117  124 1   
   124  117  125 1   
   125  118  122 1   
   126  126  127 1   
   127  126  133 1   
   128  127  128 1   
   129  127  130 1   
   130  127  134 1   
   131  128  129 2   
   132  128  140 1   
   133  130  131 1   
   134  130  132 1   
   135  130  135 1   
   136  131  137 1   
   137  131  138 1   
   138  131  139 1   
   139  132  136 1   
   140  140  141 1   
   141  140  149 1   
   142  141  142 1   
   143  141  144 1   
   144  141  150 1   
   145  142  143 2   
   146  142  162 1   
   147  144  145 1   
   148  144  151 1   
   149  144  152 1   
   150  145  146 1   
   151  145  153 1   
   152  145  154 1   
   153  146  147 1   
   154  146  155 1   
   155  146  156 1   
   156  147  148 1   
   157  147  157 1   
   158  147  158 1   
   159  148  159 1   
   160  148  160 1   
   161  148  161 1   
   162  162  163 1   
   163  162  171 1   
   164  163  164 1   
   165  163  166 1   
   166  163  172 1   
   167  164  165 2   
   168  164  177 1   
   169  166  167 1   
   170  166  173 1   
   171  166  174 1   
   172  167  168 1   
   173  167  175 1   
   174  167  176 1   
   175  168  169 1   
   176  168  170 1   
   177  177  178 1   
   178  177  182 1   
   179  178  179 1   
   180  178  180 1   
   181  178  181 1   
   182  184  185 1   
   183  184  186 1   
   184  187  188 1   
   185  187  189 1   
   186  190  191 1   
   187  190  192 1   
   188  193  194 1   
   189  193  195 1   
   190  196  197 1   
   191  196  198 1   
   192  199  200 1   
   193  199  201 1   
@<TRIPOS>SUBSTRUCTURE
     1 MOL         1 TEMP              0 ****  ****    0 ROOT
