@<TRIPOS>MOLECULE
MOL
  181   177     1     0     0
SMALL
resp


@<TRIPOS>ATOM
      1 C1         -3.8810    6.5860    4.6820 c3        1 MOL     -0.270410
      2 C2         -3.8330    5.1510    4.2710 c         1 MOL      0.836918
      3 O1         -3.3140    4.3990    5.1020 o         1 MOL     -0.619538
      4 H1         -3.2730    6.7280    5.5760 hc        1 MOL      0.053667
      5 H2         -3.4910    7.2090    3.8770 hc        1 MOL      0.053667
      6 H3         -4.9110    6.8690    4.8950 hc        1 MOL      0.053667
      7 N1         -4.3590    4.6250    3.1970 n         1 MOL     -0.866363
      8 C3         -5.0550    5.3700    2.1070 c3        1 MOL      0.514224
      9 C4         -4.4240    5.2360    0.7210 c         1 MOL      0.350933
     10 O2         -3.6140    4.3320    0.5380 o         1 MOL     -0.384637
     11 C5         -6.5420    4.9820    2.1050 c3        1 MOL     -0.237731
     12 C6         -6.8680    3.6540    1.4900 c         1 MOL      0.908470
     13 O3         -7.3660    3.5400    0.3180 o         1 MOL     -0.803210
     14 O4         -6.6040    2.5560    2.0820 o         1 MOL     -0.803210
     15 H4         -4.2850    3.6310    3.0040 hn        1 MOL      0.442597
     16 H5         -4.9820    6.4430    2.3370 h1        1 MOL     -0.067172
     17 H6         -7.1200    5.6930    1.5150 hc        1 MOL      0.006837
     18 H7         -7.0220    5.0880    3.0850 hc        1 MOL      0.006837
     19 N2         -4.8890    6.0060   -0.2920 n         1 MOL     -0.451595
     20 C7         -4.2010    6.0990   -1.6060 c3        1 MOL      0.228670
     21 C8         -4.0470    4.8030   -2.4910 c         1 MOL      0.320633
     22 O5         -3.2030    4.6870   -3.4210 o         1 MOL     -0.487662
     23 C9         -2.8870    6.8710   -1.4390 c3        1 MOL     -0.377270
     24 H8         -5.5830    6.7160   -0.0680 hn        1 MOL      0.272605
     25 H9         -4.8370    6.7540   -2.2100 h1        1 MOL      0.020058
     26 H10        -2.4280    7.0780   -2.4120 hc        1 MOL      0.112068
     27 H11        -2.9490    7.7470   -0.7910 hc        1 MOL      0.112068
     28 H12        -2.2060    6.2930   -0.8160 hc        1 MOL      0.112068
     29 N3         -4.7410    3.7130   -2.0930 n         1 MOL     -0.138317
     30 C10        -4.6020    2.4480   -2.7610 c3        1 MOL      0.068931
     31 C11        -5.9010    1.5980   -2.9270 c         1 MOL      0.245474
     32 O6         -6.8980    1.9190   -2.2950 o         1 MOL     -0.401081
     33 C12        -3.6240    1.5340   -2.0210 c3        1 MOL     -0.036965
     34 C13        -4.0020    1.1030   -0.5530 c         1 MOL      0.453581
     35 O7         -5.1350    1.2770   -0.1150 o         1 MOL     -0.553348
     36 O8         -3.0610    0.7620    0.2860 o         1 MOL     -0.553348
     37 H13        -5.3250    3.6570   -1.2700 hn        1 MOL      0.041362
     38 H14        -4.1350    2.5340   -3.7420 h1        1 MOL      0.025138
     39 H15        -2.6540    2.0310   -1.9780 hc        1 MOL      0.056915
     40 H16        -3.4710    0.6580   -2.6630 hc        1 MOL      0.056915
     41 N4         -5.8490    0.6220   -3.8190 n         1 MOL     -0.167799
     42 C14        -6.8900   -0.3860   -4.1070 c3        1 MOL     -0.682679
     43 C15        -7.0520   -1.2940   -2.8940 c         1 MOL      0.808810
     44 O9         -7.2830   -0.8260   -1.7760 o         1 MOL     -0.616212
     45 H17        -4.9930    0.4900   -4.3410 hn        1 MOL      0.292128
     46 H18        -6.5110   -0.9880   -4.9350 h1        1 MOL      0.246732
     47 H19        -7.8610    0.0700   -4.3030 h1        1 MOL      0.246732
     48 N5         -6.9570   -2.5860   -3.0810 n         1 MOL     -0.697254
     49 C16        -6.9380   -3.5590   -2.0000 c3        1 MOL      0.405931
     50 C17        -5.5370   -3.6690   -1.3620 c         1 MOL      0.499255
     51 O10        -4.4860   -3.6400   -2.0280 o         1 MOL     -0.461713
     52 C18        -7.5040   -4.8590   -2.5210 c3        1 MOL     -0.328735
     53 C19        -8.1990   -5.6570   -1.4450 c         1 MOL      0.662649
     54 N6         -7.5870   -6.7700   -1.0220 n         1 MOL     -0.790542
     55 O11        -9.1770   -5.3250   -0.8430 o         1 MOL     -0.566183
     56 H20        -6.8730   -2.8960   -4.0360 hn        1 MOL      0.344487
     57 H21        -7.5910   -3.2030   -1.2160 h1        1 MOL     -0.013104
     58 H22        -6.7670   -5.4450   -3.0590 hc        1 MOL      0.086703
     59 H23        -8.2780   -4.5620   -3.2290 hc        1 MOL      0.086703
     60 H24        -6.7700   -7.0560   -1.5480 hn        1 MOL      0.371782
     61 H25        -8.0960   -7.4350   -0.4570 hn        1 MOL      0.371782
     62 N7         -5.5580   -3.9670   -0.0240 n         1 MOL     -0.563772
     63 C20        -4.3640   -4.0880    0.7120 c3        1 MOL     -0.030175
     64 C21        -3.4950   -5.2960    0.4500 c         1 MOL      0.659067
     65 O12        -3.9130   -6.2050   -0.2470 o         1 MOL     -0.594908
     66 H26        -6.4220   -4.0130    0.4980 hn        1 MOL      0.357625
     67 H27        -4.5290   -4.1470    1.7910 h1        1 MOL      0.070029
     68 H28        -3.7180   -3.2160    0.5550 h1        1 MOL      0.070029
     69 N8         -2.2640   -5.3510    0.9280 n         1 MOL     -0.562048
     70 C22        -1.4980   -4.4860    1.7520 c3        1 MOL      0.028266
     71 C23        -0.0960   -4.1490    1.1200 c         1 MOL      0.612034
     72 O13         0.4140   -5.0180    0.3770 o         1 MOL     -0.547756
     73 C24        -1.2730   -5.0810    3.2040 c3        1 MOL      0.270529
     74 C25        -2.4680   -5.2560    4.1260 c3        1 MOL     -0.463217
     75 O14        -0.6070   -6.4040    2.9450 oh        1 MOL     -0.586426
     76 H29        -1.6670   -6.0410    0.4980 hn        1 MOL      0.328492
     77 H30        -1.9750   -3.5150    1.8200 h1        1 MOL      0.039467
     78 H31        -0.5210   -4.5530    3.7890 h1        1 MOL      0.052527
     79 H32        -1.0390   -6.9750    3.5900 ho        1 MOL      0.372429
     80 H33        -2.0590   -5.7010    5.0300 hc        1 MOL      0.122061
     81 H34        -2.9230   -4.2810    4.2710 hc        1 MOL      0.122061
     82 H35        -3.1500   -6.0030    3.7070 hc        1 MOL      0.122061
     83 N9          0.4740   -3.0700    1.5810 n         1 MOL     -0.398318
     84 C26         1.6890   -2.4390    1.0830 c3        1 MOL     -0.015306
     85 C27         2.7080   -1.8970    2.2310 c         1 MOL      0.550388
     86 O15         2.3020   -1.7790    3.3930 o         1 MOL     -0.549168
     87 C28         1.3940   -1.4000    0.0010 c3        1 MOL      0.341277
     88 C29         0.1370   -0.5780    0.1310 c3        1 MOL     -0.053173
     89 C30         1.3570   -2.0440   -1.4260 c3        1 MOL     -0.061403
     90 C31         0.1340    0.1580    1.4410 c3        1 MOL      0.020762
     91 H36         0.0220   -2.5950    2.3400 hn        1 MOL      0.230552
     92 H37         2.2690   -3.2040    0.5690 h1        1 MOL      0.073774
     93 H38         2.2260   -0.7060   -0.0830 hc        1 MOL     -0.099457
     94 H39        -0.7610   -1.1910    0.2070 hc        1 MOL     -0.003654
     95 H40         0.0530    0.1440   -0.6840 hc        1 MOL     -0.003654
     96 H41         1.4820   -1.2800   -2.1870 hc        1 MOL     -0.021670
     97 H42         2.0620   -2.8670   -1.5880 hc        1 MOL     -0.021670
     98 H43         0.3130   -2.3540   -1.5320 hc        1 MOL     -0.021670
     99 H44         0.0220   -0.4470    2.3400 hc        1 MOL     -0.016435
    100 H45         1.0940    0.6650    1.5190 hc        1 MOL     -0.016435
    101 H46        -0.6990    0.8730    1.4260 hc        1 MOL     -0.016435
    102 N10         4.0100   -1.5610    1.9650 n         1 MOL     -0.545552
    103 C32         4.8520   -2.1440    0.8820 c3        1 MOL      0.336541
    104 C33         6.1180   -1.4330    0.6090 c         1 MOL      0.295057
    105 O16         6.4980   -0.6500    1.4140 o         1 MOL     -0.471630
    106 C34         5.2360   -3.6270    1.2100 c3        1 MOL     -0.107283
    107 C35         6.1050   -3.7960    2.4220 c         1 MOL      0.771753
    108 O17         5.5980   -3.6760    3.5430 o         1 MOL     -0.711855
    109 O18         7.2570   -4.2560    2.2800 o         1 MOL     -0.711855
    110 H47         4.4810   -1.2050    2.7820 hn        1 MOL      0.334499
    111 H48         4.3070   -2.2070   -0.0670 h1        1 MOL      0.005376
    112 H49         5.8020   -3.9300    0.3220 hc        1 MOL     -0.031522
    113 H50         4.3030   -4.1930    1.2240 hc        1 MOL     -0.031522
    114 N11         6.8860   -1.8090   -0.4170 n         1 MOL     -0.572070
    115 C36         8.1780   -1.2140   -0.7840 c3        1 MOL      0.616614
    116 C37         8.1160   -0.4460   -2.0760 c         1 MOL      0.095549
    117 O19         7.4320   -0.9330   -2.9660 o         1 MOL     -0.485497
    118 C38         9.2580   -2.2810   -0.6980 c3        1 MOL     -0.024987
    119 C39        10.7550   -1.6830   -0.8630 ca        1 MOL      0.021844
    120 C40        11.3730   -1.5860   -2.1550 ca        1 MOL     -0.119436
    121 C41        11.4380   -1.2010    0.2910 ca        1 MOL     -0.119436
    122 C42        12.6040   -0.9070   -2.3090 ca        1 MOL     -0.201459
    123 C43        12.6850   -0.6060    0.1460 ca        1 MOL     -0.201459
    124 C44        13.2510   -0.4830   -1.1330 ca        1 MOL     -0.037469
    125 H51         6.5000   -2.4500   -1.0970 hn        1 MOL      0.326997
    126 H52         8.3900   -0.4810   -0.0050 h1        1 MOL     -0.040093
    127 H53         9.0510   -2.9680   -1.5180 hc        1 MOL     -0.001845
    128 H54         9.2610   -2.9840    0.1390 hc        1 MOL     -0.001845
    129 H55        10.7980   -1.8990   -3.0170 ha        1 MOL      0.122233
    130 H56        10.9020   -1.3270    1.2220 ha        1 MOL      0.122233
    131 H57        12.9950   -0.5890   -3.2660 ha        1 MOL      0.133692
    132 H58        13.2290   -0.2740    1.0140 ha        1 MOL      0.133692
    133 H59        14.1940    0.0070   -1.3240 ha        1 MOL      0.062147
    134 N12         8.8130    0.7060   -2.2450 n         1 MOL      0.105255
    135 C45         9.5540    1.4420   -1.2140 c3        1 MOL      0.026327
    136 C46         8.6950    2.0200   -0.0460 c         1 MOL      0.452674
    137 O20         9.1690    2.1870    1.1070 o         1 MOL     -0.544113
    138 C47        10.2150    2.5970   -1.9040 c3        1 MOL     -0.136109
    139 C48        10.2730    2.1700   -3.3580 c3        1 MOL      0.001418
    140 C49         9.0430    1.3070   -3.5660 c3        1 MOL     -0.302873
    141 H60        10.3330    0.8160   -0.7670 h1        1 MOL      0.053844
    142 H61         9.4700    3.3950   -1.8100 hc        1 MOL      0.063540
    143 H62        11.1510    2.8910   -1.4310 hc        1 MOL      0.063540
    144 H63        10.2820    3.0800   -3.9550 hc        1 MOL      0.018091
    145 H64        11.0890    1.5330   -3.7140 hc        1 MOL      0.018091
    146 H65         8.1800    1.9080   -3.8740 h1        1 MOL      0.124793
    147 H66         9.2960    0.5430   -4.2940 h1        1 MOL      0.124793
    148 N13         7.4480    2.3530   -0.3930 n         1 MOL     -0.453381
    149 C50         6.4820    2.8330    0.6190 c3        1 MOL      0.275927
    150 C51         6.8040    4.2910    1.0550 c         1 MOL      0.460884
    151 O21         6.6170    5.2010    0.2700 o         1 MOL     -0.600260
    152 C52         5.0280    2.7140    0.0080 c3        1 MOL     -0.261297
    153 C53         4.5510    1.3360   -0.3770 c3        1 MOL      0.335656
    154 C54         3.4630    1.2300   -1.4810 c         1 MOL      0.696251
    155 O22         3.7980    0.6210   -2.4640 o         1 MOL     -0.684946
    156 O23         2.4000    1.8570   -1.3670 o         1 MOL     -0.684946
    157 H67         7.1460    2.2570   -1.3510 hn        1 MOL      0.319653
    158 H68         6.4920    2.1930    1.5050 h1        1 MOL      0.056880
    159 H69         5.0370    3.3550   -0.8780 hc        1 MOL      0.032618
    160 H70         4.4390    3.0400    0.8660 hc        1 MOL      0.032618
    161 H71         4.1590    0.8760    0.5320 hc        1 MOL     -0.122989
    162 H72         5.3980    0.7210   -0.6790 hc        1 MOL     -0.122989
    163 N14         7.0500    4.7190    2.2670 n         1 MOL     -0.348333
    164 C55         7.5830    3.8900    3.4060 c3        1 MOL     -0.152317
    165 H73         8.1710    4.5220    4.0720 h1        1 MOL      0.078193
    166 H74         6.7510    3.4550    3.9600 h1        1 MOL      0.078193
    167 H75         8.2140    3.0930    3.0130 h1        1 MOL      0.078193
    168 H76         7.0540    5.7270    2.4000 hn        1 MOL      0.273281
    169 Ca1        -7.6140    0.9830    0.1430 Ca        1 MOL      1.740309
    170 O24        -8.9410   -1.3700    0.5790 oh        1 MOL     -0.830249
    171 H77        -8.6440   -2.0660    1.1660 ho        1 MOL      0.383065
    172 H78        -9.8760   -1.5210    0.4740 ho        1 MOL      0.383065
    173 O25        -9.8190    1.1960   -1.3800 oh        1 MOL     -0.830249
    174 H79        -9.9460    1.8660   -2.0530 ho        1 MOL      0.383065
    175 H80       -10.7080    0.9780   -1.0940 ho        1 MOL      0.383065
    176 O26        -6.1070   -0.7030    1.6590 oh        1 MOL     -0.830249
    177 H81        -5.2090   -0.6320    1.3330 ho        1 MOL      0.383065
    178 H82        -6.0440   -1.2890    2.4170 ho        1 MOL      0.383065
    179 O27        -9.7470    1.5250    1.8770 oh        1 MOL     -0.830249
    180 H83       -10.1810    1.8880    2.6480 ho        1 MOL      0.383065
    181 H84       -10.0780    0.6350    1.8020 ho        1 MOL      0.383065
@<TRIPOS>BOND
     1    1    2 1   
     2    1    4 1   
     3    1    5 1   
     4    1    6 1   
     5    2    3 2   
     6    2    7 1   
     7    7    8 1   
     8    7   15 1   
     9    8    9 1   
    10    8   11 1   
    11    8   16 1   
    12    9   10 2   
    13    9   19 1   
    14   11   12 1   
    15   11   17 1   
    16   11   18 1   
    17   12   13 1   
    18   12   14 1   
    19   19   20 1   
    20   19   24 1   
    21   20   21 1   
    22   20   23 1   
    23   20   25 1   
    24   21   22 2   
    25   21   29 1   
    26   23   26 1   
    27   23   27 1   
    28   23   28 1   
    29   29   30 1   
    30   29   37 1   
    31   30   31 1   
    32   30   33 1   
    33   30   38 1   
    34   31   32 2   
    35   31   41 1   
    36   33   34 1   
    37   33   39 1   
    38   33   40 1   
    39   34   35 1   
    40   34   36 1   
    41   41   42 1   
    42   41   45 1   
    43   42   43 1   
    44   42   46 1   
    45   42   47 1   
    46   43   44 2   
    47   43   48 1   
    48   48   49 1   
    49   48   56 1   
    50   49   50 1   
    51   49   52 1   
    52   49   57 1   
    53   50   51 2   
    54   50   62 1   
    55   52   53 1   
    56   52   58 1   
    57   52   59 1   
    58   53   54 1   
    59   53   55 2   
    60   54   60 1   
    61   54   61 1   
    62   62   63 1   
    63   62   66 1   
    64   63   64 1   
    65   63   67 1   
    66   63   68 1   
    67   64   65 2   
    68   64   69 1   
    69   69   70 1   
    70   69   76 1   
    71   70   71 1   
    72   70   73 1   
    73   70   77 1   
    74   71   72 2   
    75   71   83 1   
    76   73   74 1   
    77   73   75 1   
    78   73   78 1   
    79   74   80 1   
    80   74   81 1   
    81   74   82 1   
    82   75   79 1   
    83   83   84 1   
    84   83   91 1   
    85   84   85 1   
    86   84   87 1   
    87   84   92 1   
    88   85   86 2   
    89   85  102 1   
    90   87   88 1   
    91   87   89 1   
    92   87   93 1   
    93   88   90 1   
    94   88   94 1   
    95   88   95 1   
    96   89   96 1   
    97   89   97 1   
    98   89   98 1   
    99   90   99 1   
   100   90  100 1   
   101   90  101 1   
   102  102  103 1   
   103  102  110 1   
   104  103  104 1   
   105  103  106 1   
   106  103  111 1   
   107  104  105 2   
   108  104  114 1   
   109  106  107 1   
   110  106  112 1   
   111  106  113 1   
   112  107  108 1   
   113  107  109 1   
   114  114  115 1   
   115  114  125 1   
   116  115  116 1   
   117  115  118 1   
   118  115  126 1   
   119  116  117 2   
   120  116  134 1   
   121  118  119 1   
   122  118  127 1   
   123  118  128 1   
   124  119  120 ar  
   125  119  121 ar  
   126  120  122 ar  
   127  120  129 1   
   128  121  123 ar  
   129  121  130 1   
   130  122  124 ar  
   131  122  131 1   
   132  123  124 ar  
   133  123  132 1   
   134  124  133 1   
   135  134  135 1   
   136  134  140 1   
   137  135  136 1   
   138  135  138 1   
   139  135  141 1   
   140  136  137 2   
   141  136  148 1   
   142  138  139 1   
   143  138  142 1   
   144  138  143 1   
   145  139  140 1   
   146  139  144 1   
   147  139  145 1   
   148  140  146 1   
   149  140  147 1   
   150  148  149 1   
   151  148  157 1   
   152  149  150 1   
   153  149  152 1   
   154  149  158 1   
   155  150  151 2   
   156  150  163 1   
   157  152  153 1   
   158  152  159 1   
   159  152  160 1   
   160  153  154 1   
   161  153  161 1   
   162  153  162 1   
   163  154  155 1   
   164  154  156 1   
   165  163  164 1   
   166  163  168 1   
   167  164  165 1   
   168  164  166 1   
   169  164  167 1   
   170  170  171 1   
   171  170  172 1   
   172  173  174 1   
   173  173  175 1   
   174  176  177 1   
   175  176  178 1   
   176  179  180 1   
   177  179  181 1   
@<TRIPOS>SUBSTRUCTURE
     1 MOL         1 TEMP              0 ****  ****    0 ROOT
