@<TRIPOS>MOLECULE
MOL
  192   187     1     0     0
SMALL
resp


@<TRIPOS>ATOM
      1 C1         13.8030    3.5290   -2.6980 c3        1 MOL     -0.410111
      2 C2         12.9170    2.3900   -2.0340 c         1 MOL      0.609963
      3 O1         12.8360    1.2860   -2.5540 o         1 MOL     -0.576690
      4 H1         13.2210    4.4470   -2.7690 hc        1 MOL      0.110978
      5 H2         14.6860    3.7060   -2.0840 hc        1 MOL      0.110978
      6 H3         14.1100    3.2160   -3.6960 hc        1 MOL      0.110978
      7 N1         12.3580    2.6300   -0.8410 n         1 MOL     -0.239346
      8 C3         11.7260    1.5500   -0.0920 c3        1 MOL     -0.248883
      9 C4         10.3240    1.1930   -0.5900 c         1 MOL      0.479412
     10 O2          9.4240    2.0450   -0.7570 o         1 MOL     -0.501364
     11 C5         11.7890    1.7870    1.4500 c3        1 MOL     -0.033870
     12 C6         11.4170    3.1000    2.0320 c         1 MOL      0.716574
     13 O3         10.7210    3.9540    1.3590 o         1 MOL     -0.687643
     14 O4         11.7620    3.4020    3.1970 o         1 MOL     -0.687643
     15 H4         12.5180    3.4850   -0.3290 hn        1 MOL      0.188799
     16 H5         12.2660    0.6280   -0.2940 h1        1 MOL      0.124443
     17 H6         12.8180    1.6280    1.7680 hc        1 MOL      0.056117
     18 H7         11.2430    0.9940    1.9750 hc        1 MOL      0.056117
     19 N2         10.0300   -0.0950   -0.8320 n         1 MOL     -0.390042
     20 C7          8.6830   -0.5650   -1.2580 c3        1 MOL      0.086912
     21 C8          7.8120   -0.6780    0.0020 c         1 MOL      0.678263
     22 O5          8.3040   -1.2960    0.9790 o         1 MOL     -0.575602
     23 C9          8.7590   -2.0140   -1.8890 c3        1 MOL     -0.074329
     24 C10         7.4610   -2.5470   -2.5970 c3        1 MOL     -0.013118
     25 C11         7.0360   -1.7540   -3.8150 c3        1 MOL     -0.104239
     26 C12         5.7730   -2.3550   -4.3810 c3        1 MOL      0.110070
     27 N3          6.0550   -3.4690   -5.2980 n4        1 MOL     -0.265825
     28 H8         10.7850   -0.7590   -0.8250 hn        1 MOL      0.276538
     29 H9          8.2260    0.1600   -1.9220 h1        1 MOL     -0.016055
     30 H10         8.8980   -2.6830   -1.0380 hc        1 MOL      0.045689
     31 H11         9.5780   -2.0390   -2.6050 hc        1 MOL      0.045689
     32 H12         6.6480   -2.6320   -1.8670 hc        1 MOL      0.021233
     33 H13         7.7350   -3.5600   -2.8970 hc        1 MOL      0.021233
     34 H14         7.8290   -1.5990   -4.5290 hc        1 MOL      0.064347
     35 H15         6.6570   -0.7530   -3.6030 hc        1 MOL      0.064347
     36 H16         5.1740   -1.6320   -4.9270 hx        1 MOL      0.029226
     37 H17         5.0890   -2.6800   -3.6000 hx        1 MOL      0.029226
     38 H18         6.3770   -3.2300   -6.2170 hn        1 MOL      0.247424
     39 H19         6.6950   -4.1140   -4.8610 hn        1 MOL      0.247424
     40 H20         5.1980   -3.9790   -5.4550 hn        1 MOL      0.247424
     41 N4          6.6990   -0.0440    0.0270 n         1 MOL     -0.424208
     42 C13         5.6690   -0.1060    1.1250 c3        1 MOL     -0.066175
     43 C14         4.2940   -0.1220    0.4970 c         1 MOL      0.568230
     44 O6          4.1320    0.3220   -0.6110 o         1 MOL     -0.572024
     45 C15         5.8780    1.0120    2.1950 c3        1 MOL      0.287131
     46 C16         6.7220    2.1640    1.7230 c         1 MOL      0.604993
     47 O7          6.2560    3.0860    1.0460 o         1 MOL     -0.778716
     48 O8          7.9550    2.2570    2.0470 o         1 MOL     -0.778716
     49 H21         6.4220    0.3640   -0.8570 hn        1 MOL      0.216175
     50 H22         5.5970   -1.1290    1.5150 h1        1 MOL      0.082221
     51 H23         6.3190    0.5740    3.0900 hc        1 MOL     -0.022189
     52 H24         4.9230    1.3840    2.5890 hc        1 MOL     -0.022189
     53 N5          3.1660   -0.5760    1.0720 n         1 MOL     -0.408814
     54 C17         3.0220   -0.9810    2.5000 c3        1 MOL     -0.067286
     55 C18         2.6470   -2.4700    2.7880 c         1 MOL      0.739109
     56 O9          3.0560   -3.3470    2.0330 o         1 MOL     -0.593475
     57 H25         2.3790   -0.6160    0.4450 hn        1 MOL      0.293861
     58 H26         2.3390   -0.2680    2.9640 h1        1 MOL      0.056223
     59 H27         3.9580   -0.7840    3.0230 h1        1 MOL      0.056223
     60 N6          1.8770   -2.7670    3.8070 n         1 MOL     -0.541248
     61 C19         1.4070   -4.1250    4.1640 c3        1 MOL     -0.056815
     62 C20         0.1220   -4.5130    3.3790 c         1 MOL      0.573286
     63 O10        -0.8690   -3.7490    3.4440 o         1 MOL     -0.528444
     64 C21         1.1350   -4.1710    5.7020 c3        1 MOL     -0.264496
     65 C22         2.4060   -3.9130    6.4940 c         1 MOL      0.688863
     66 O11         2.2320   -3.4150    7.6280 o         1 MOL     -0.630986
     67 O12         3.5670   -4.3020    6.1210 o         1 MOL     -0.630986
     68 H28         1.5610   -1.9880    4.3610 hn        1 MOL      0.324615
     69 H29         2.1930   -4.8410    3.9090 h1        1 MOL      0.078076
     70 H30         0.6990   -5.1430    5.9210 hc        1 MOL      0.095567
     71 H31         0.3580   -3.4360    5.8940 hc        1 MOL      0.095567
     72 N7          0.2360   -5.5030    2.5210 n         1 MOL     -0.408641
     73 C23        -0.8980   -5.9050    1.6640 c3        1 MOL     -0.047486
     74 C24        -0.8770   -5.2990    0.2720 c         1 MOL      0.512799
     75 O13        -1.8080   -5.4180   -0.5140 o         1 MOL     -0.573329
     76 H32         1.0730   -6.0620    2.4310 hn        1 MOL      0.307708
     77 H33        -1.8770   -5.7310    2.1130 h1        1 MOL      0.077497
     78 H34        -0.7870   -6.9580    1.4130 h1        1 MOL      0.077497
     79 N8          0.1720   -4.5680   -0.0930 n         1 MOL     -0.241014
     80 C25         0.2070   -3.7860   -1.3520 c3        1 MOL     -0.045249
     81 C26         0.0380   -2.2670   -0.9770 c         1 MOL      0.165795
     82 O14         0.5770   -1.8620    0.0300 o         1 MOL     -0.398120
     83 C27         1.3730   -4.0580   -2.3100 c3        1 MOL      0.257148
     84 C28         2.7410   -3.8070   -1.6730 c3        1 MOL     -0.258409
     85 O15         1.3420   -5.3850   -2.7550 oh        1 MOL     -0.644999
     86 H35         0.8800   -4.4670    0.6250 hn        1 MOL      0.220316
     87 H36        -0.6490   -4.0800   -1.9650 h1        1 MOL      0.084055
     88 H37         1.2250   -3.3840   -3.1510 h1        1 MOL     -0.005343
     89 H38         0.5110   -5.6850   -3.1470 ho        1 MOL      0.416305
     90 H39         3.5640   -3.8980   -2.3800 hc        1 MOL      0.094667
     91 H40         2.7020   -2.7480   -1.4110 hc        1 MOL      0.094667
     92 H41         2.9440   -4.5290   -0.8790 hc        1 MOL      0.094667
     93 N9         -0.5640   -1.5330   -1.8480 n         1 MOL     -0.140467
     94 C29        -0.9270   -0.1160   -1.6340 c3        1 MOL     -0.260407
     95 C30        -2.3740    0.0420   -1.0750 c         1 MOL      0.794871
     96 O16        -2.4880    0.8290   -0.1370 o         1 MOL     -0.561614
     97 C31        -0.8220    0.5880   -3.0440 c3        1 MOL      0.133906
     98 C32         0.6330    1.0050   -3.2940 c3        1 MOL     -0.129341
     99 C33        -1.5650    1.9660   -3.0580 c3        1 MOL     -0.364207
    100 C34         1.8400    0.0220   -3.0640 c3        1 MOL     -0.184975
    101 H42        -0.8420   -1.9080   -2.7390 hn        1 MOL      0.238290
    102 H43        -0.2270    0.2770   -0.8970 h1        1 MOL      0.135836
    103 H44        -1.2730   -0.0510   -3.8020 hc        1 MOL      0.021824
    104 H45         0.9010    1.9010   -2.7270 hc        1 MOL      0.067102
    105 H46         0.6280    1.3640   -4.3270 hc        1 MOL      0.067102
    106 H47        -1.4330    2.4720   -2.1040 hc        1 MOL      0.101222
    107 H48        -1.2670    2.5740   -3.9130 hc        1 MOL      0.101222
    108 H49        -2.6410    1.7910   -3.0520 hc        1 MOL      0.101222
    109 H50         2.8320    0.4420   -3.2300 hc        1 MOL      0.056249
    110 H51         1.8250   -0.2820   -2.0180 hc        1 MOL      0.056249
    111 H52         1.7590   -0.8480   -3.7220 hc        1 MOL      0.056249
    112 N10        -3.3840   -0.7760   -1.4390 n         1 MOL     -0.601919
    113 C35        -4.6030   -0.9520   -0.6650 c3        1 MOL     -0.046134
    114 C36        -5.6570   -1.6500   -1.4730 c         1 MOL      0.753803
    115 O17        -5.3240   -2.3350   -2.4130 o         1 MOL     -0.563717
    116 C37        -4.3780   -1.5650    0.7360 c3        1 MOL      0.347549
    117 C38        -3.5650   -2.8680    0.7020 c3        1 MOL     -0.430246
    118 O18        -3.7350   -0.6810    1.6170 oh        1 MOL     -0.632450
    119 H53        -3.1600   -1.5750   -2.0030 hn        1 MOL      0.255346
    120 H54        -4.9890    0.0560   -0.5670 h1        1 MOL      0.096651
    121 H55        -5.3590   -1.7850    1.1410 h1        1 MOL      0.057770
    122 H56        -2.7980   -0.5910    1.4790 ho        1 MOL      0.433994
    123 H57        -4.0530   -3.6100    0.0690 hc        1 MOL      0.127513
    124 H58        -2.5440   -2.7550    0.3280 hc        1 MOL      0.127513
    125 H59        -3.5520   -3.2800    1.7090 hc        1 MOL      0.127513
    126 N11        -6.9450   -1.5590   -1.2070 n         1 MOL     -0.673768
    127 C39        -8.0840   -2.1550   -1.9530 c3        1 MOL      0.054152
    128 C40        -9.2550   -1.1860   -2.1410 c         1 MOL      0.640502
    129 O19        -9.6330   -0.9240   -3.2540 o         1 MOL     -0.569347
    130 C41        -8.5840   -3.4870   -1.3900 c3        1 MOL      0.289807
    131 C42        -9.8190   -4.0850   -1.9740 c3        1 MOL     -0.454765
    132 O20        -8.7780   -3.3150   -0.0140 oh        1 MOL     -0.639159
    133 H60        -7.1480   -0.8990   -0.4750 hn        1 MOL      0.279123
    134 H61        -7.7810   -2.3860   -2.9720 h1        1 MOL      0.076978
    135 H62        -7.8200   -4.2550   -1.4840 h1        1 MOL      0.036501
    136 H63        -8.2480   -4.0260    0.3490 ho        1 MOL      0.412851
    137 H64       -10.6810   -3.4430   -1.8290 hc        1 MOL      0.125054
    138 H65        -9.6480   -4.2220   -3.0410 hc        1 MOL      0.125054
    139 H66        -9.9950   -5.0700   -1.5240 hc        1 MOL      0.125054
    140 N12        -9.8350   -0.6430   -1.0700 n         1 MOL     -0.366307
    141 C43       -10.8300    0.4450   -1.0820 c3        1 MOL     -0.028461
    142 C44       -10.5450    1.3230    0.1560 c         1 MOL      0.520436
    143 O21       -10.3150    0.7650    1.2240 o         1 MOL     -0.525971
    144 C45       -12.2760    0.0570   -1.2210 c3        1 MOL     -0.184579
    145 C46       -13.1250    1.3840   -1.4680 c3        1 MOL      0.068106
    146 C47       -14.6600    1.0900   -1.5750 c3        1 MOL     -0.175618
    147 C48       -15.1150    0.6930   -0.1240 c3        1 MOL      0.077301
    148 N13       -16.5360    0.4580   -0.0060 n4        1 MOL     -0.358756
    149 H67        -9.8190   -1.1110   -0.1830 hn        1 MOL      0.297894
    150 H68       -10.6270    1.0430   -1.9660 h1        1 MOL      0.088572
    151 H69       -12.5900   -0.4740   -0.3210 hc        1 MOL      0.079299
    152 H70       -12.4300   -0.6540   -2.0420 hc        1 MOL      0.079299
    153 H71       -12.8310    1.8950   -2.3760 hc        1 MOL      0.044639
    154 H72       -13.0450    2.0590   -0.6130 hc        1 MOL      0.044639
    155 H73       -14.8740    0.3390   -2.3350 hc        1 MOL      0.069545
    156 H74       -15.1160    2.0330   -1.8640 hc        1 MOL      0.069545
    157 H75       -14.7980    1.5850    0.4260 hx        1 MOL      0.073461
    158 H76       -14.6360   -0.1720    0.3280 hx        1 MOL      0.073461
    159 H77       -17.0580    1.2840   -0.2910 hn        1 MOL      0.282239
    160 H78       -16.6800   -0.3470   -0.5910 hn        1 MOL      0.282239
    161 H79       -16.8050    0.3960    0.9670 hn        1 MOL      0.282239
    162 N14       -10.4800    2.6740    0.0540 n         1 MOL     -0.609575
    163 C49       -10.3070    3.5080    1.2150 c3        1 MOL      0.641663
    164 C50        -8.7610    3.8570    1.5280 c         1 MOL      0.244129
    165 O22        -8.3260    3.6880    2.6410 o         1 MOL     -0.497145
    166 C51       -11.1490    4.7120    0.8570 c3        1 MOL     -0.611256
    167 C52       -10.8320    5.8530    1.8470 c3        1 MOL     -0.063905
    168 C53       -11.7840    7.0310    1.7420 c         1 MOL      0.669580
    169 O23       -12.3930    7.4060    2.7870 o         1 MOL     -0.651828
    170 O24       -11.7600    7.7410    0.7190 o         1 MOL     -0.651828
    171 H80       -10.7450    3.1490   -0.8050 hn        1 MOL      0.270140
    172 H81       -10.7220    3.1210    2.1520 h1        1 MOL     -0.012477
    173 H82       -12.1980    4.4930    1.0260 hc        1 MOL      0.147268
    174 H83       -10.9140    5.1000   -0.1300 hc        1 MOL      0.147268
    175 H84        -9.8260    6.2410    1.7020 hc        1 MOL      0.053139
    176 H85       -10.8320    5.3550    2.8180 hc        1 MOL      0.053139
    177 N15        -7.9030    4.2640    0.5800 n         1 MOL     -0.257642
    178 C54        -8.1010    4.7210   -0.7530 c3        1 MOL     -0.065614
    179 H86        -7.5640    5.6580   -0.8980 h1        1 MOL      0.052124
    180 H87        -7.7240    3.9750   -1.4530 h1        1 MOL      0.052124
    181 H88        -9.1650    4.8810   -0.9290 h1        1 MOL      0.052124
    182 H89        -6.9240    4.3050    0.8260 hn        1 MOL      0.287660
    183 Ca1         8.4070    4.2300    0.2480 Ca        1 MOL      1.770056
    184 O25         7.3730    3.4520   -2.2470 oh        1 MOL     -0.920838
    185 H90         6.5510    2.9560   -2.2470 ho        1 MOL      0.445006
    186 H91         7.8830    3.0710   -2.9560 ho        1 MOL      0.445006
    187 O26         9.2120    6.3700    1.8020 oh        1 MOL     -0.920838
    188 H92         9.7730    6.2390    2.5670 ho        1 MOL      0.445006
    189 H93         9.0430    7.3130    1.7940 ho        1 MOL      0.445006
    190 O27         9.8370    5.2530   -1.6200 oh        1 MOL     -0.920838
    191 H94         9.5300    5.2350   -2.5350 ho        1 MOL      0.445006
    192 H95        10.0990    6.1560   -1.4740 ho        1 MOL      0.445006
@<TRIPOS>BOND
     1    1    2 1   
     2    1    4 1   
     3    1    5 1   
     4    1    6 1   
     5    2    3 2   
     6    2    7 1   
     7    7    8 1   
     8    7   15 1   
     9    8    9 1   
    10    8   11 1   
    11    8   16 1   
    12    9   10 2   
    13    9   19 1   
    14   11   12 1   
    15   11   17 1   
    16   11   18 1   
    17   12   13 1   
    18   12   14 1   
    19   19   20 1   
    20   19   28 1   
    21   20   21 1   
    22   20   23 1   
    23   20   29 1   
    24   21   22 2   
    25   21   41 1   
    26   23   24 1   
    27   23   30 1   
    28   23   31 1   
    29   24   25 1   
    30   24   32 1   
    31   24   33 1   
    32   25   26 1   
    33   25   34 1   
    34   25   35 1   
    35   26   27 1   
    36   26   36 1   
    37   26   37 1   
    38   27   38 1   
    39   27   39 1   
    40   27   40 1   
    41   41   42 1   
    42   41   49 1   
    43   42   43 1   
    44   42   45 1   
    45   42   50 1   
    46   43   44 2   
    47   43   53 1   
    48   45   46 1   
    49   45   51 1   
    50   45   52 1   
    51   46   47 1   
    52   46   48 1   
    53   53   54 1   
    54   53   57 1   
    55   54   55 1   
    56   54   58 1   
    57   54   59 1   
    58   55   56 2   
    59   55   60 1   
    60   60   61 1   
    61   60   68 1   
    62   61   62 1   
    63   61   64 1   
    64   61   69 1   
    65   62   63 2   
    66   62   72 1   
    67   64   65 1   
    68   64   70 1   
    69   64   71 1   
    70   65   66 1   
    71   65   67 1   
    72   72   73 1   
    73   72   76 1   
    74   73   74 1   
    75   73   77 1   
    76   73   78 1   
    77   74   75 2   
    78   74   79 1   
    79   79   80 1   
    80   79   86 1   
    81   80   81 1   
    82   80   83 1   
    83   80   87 1   
    84   81   82 2   
    85   81   93 1   
    86   83   84 1   
    87   83   85 1   
    88   83   88 1   
    89   84   90 1   
    90   84   91 1   
    91   84   92 1   
    92   85   89 1   
    93   93   94 1   
    94   93  101 1   
    95   94   95 1   
    96   94   97 1   
    97   94  102 1   
    98   95   96 2   
    99   95  112 1   
   100   97   98 1   
   101   97   99 1   
   102   97  103 1   
   103   98  100 1   
   104   98  104 1   
   105   98  105 1   
   106   99  106 1   
   107   99  107 1   
   108   99  108 1   
   109  100  109 1   
   110  100  110 1   
   111  100  111 1   
   112  112  113 1   
   113  112  119 1   
   114  113  114 1   
   115  113  116 1   
   116  113  120 1   
   117  114  115 2   
   118  114  126 1   
   119  116  117 1   
   120  116  118 1   
   121  116  121 1   
   122  117  123 1   
   123  117  124 1   
   124  117  125 1   
   125  118  122 1   
   126  126  127 1   
   127  126  133 1   
   128  127  128 1   
   129  127  130 1   
   130  127  134 1   
   131  128  129 2   
   132  128  140 1   
   133  130  131 1   
   134  130  132 1   
   135  130  135 1   
   136  131  137 1   
   137  131  138 1   
   138  131  139 1   
   139  132  136 1   
   140  140  141 1   
   141  140  149 1   
   142  141  142 1   
   143  141  144 1   
   144  141  150 1   
   145  142  143 2   
   146  142  162 1   
   147  144  145 1   
   148  144  151 1   
   149  144  152 1   
   150  145  146 1   
   151  145  153 1   
   152  145  154 1   
   153  146  147 1   
   154  146  155 1   
   155  146  156 1   
   156  147  148 1   
   157  147  157 1   
   158  147  158 1   
   159  148  159 1   
   160  148  160 1   
   161  148  161 1   
   162  162  163 1   
   163  162  171 1   
   164  163  164 1   
   165  163  166 1   
   166  163  172 1   
   167  164  165 2   
   168  164  177 1   
   169  166  167 1   
   170  166  173 1   
   171  166  174 1   
   172  167  168 1   
   173  167  175 1   
   174  167  176 1   
   175  168  169 1   
   176  168  170 1   
   177  177  178 1   
   178  177  182 1   
   179  178  179 1   
   180  178  180 1   
   181  178  181 1   
   182  184  185 1   
   183  184  186 1   
   184  187  188 1   
   185  187  189 1   
   186  190  191 1   
   187  190  192 1   
@<TRIPOS>SUBSTRUCTURE
     1 MOL         1 TEMP              0 ****  ****    0 ROOT
