@<TRIPOS>MOLECULE
MOL
  179   176     1     0     0
SMALL
resp


@<TRIPOS>ATOM
      1 C1         -0.2690   -5.2660    5.5020 c3        1 MOL     -0.356137
      2 C2         -0.3110   -4.5590    4.1170 c         1 MOL      0.747077
      3 O1         -1.2630   -4.5820    3.3440 o         1 MOL     -0.570813
      4 H1          0.3160   -4.6650    6.1980 hc        1 MOL      0.099449
      5 H2         -1.2830   -5.3780    5.8850 hc        1 MOL      0.099449
      6 H3          0.1900   -6.2480    5.3950 hc        1 MOL      0.099449
      7 N1          0.8660   -3.9250    3.7460 n         1 MOL     -0.727108
      8 C3          1.2340   -3.5140    2.3540 c3        1 MOL      0.082108
      9 C4          1.5570   -4.6250    1.4050 c         1 MOL      0.634095
     10 O2          2.4650   -5.4250    1.6240 o         1 MOL     -0.566976
     11 C5          2.3810   -2.5620    2.4470 c3        1 MOL      0.096013
     12 C6          2.6270   -1.7650    1.2350 c         1 MOL      0.821889
     13 O3          3.2390   -0.7080    1.2350 o         1 MOL     -0.805216
     14 O4          2.2370   -2.1700    0.0910 o         1 MOL     -0.805216
     15 H4          1.6370   -4.0350    4.3890 hn        1 MOL      0.346035
     16 H5          0.3480   -3.0380    1.9550 h1        1 MOL      0.024920
     17 H6          3.2880   -3.0550    2.7990 hc        1 MOL     -0.003890
     18 H7          2.1120   -1.8840    3.2510 hc        1 MOL     -0.003890
     19 N2          0.7950   -4.6530    0.3480 n         1 MOL     -0.320136
     20 C7          0.8430   -5.4890   -0.8680 c3        1 MOL     -0.069555
     21 C8          2.1170   -5.4670   -1.6830 c         1 MOL      0.506383
     22 O5          2.6290   -6.4640   -2.1500 o         1 MOL     -0.539528
     23 C9         -0.3300   -5.1240   -1.8380 c3        1 MOL     -0.279420
     24 C10        -0.3320   -3.6440   -2.3510 c3        1 MOL      0.178818
     25 C11        -1.5520   -3.4620   -3.3560 c3        1 MOL     -0.268488
     26 C12        -1.5170   -1.9700   -3.8550 c3        1 MOL      0.218263
     27 N3         -2.5280   -1.7280   -4.9090 n4        1 MOL     -0.322188
     28 H8          0.1840   -3.8500    0.2770 hn        1 MOL      0.195730
     29 H9          0.7040   -6.5060   -0.4810 h1        1 MOL      0.130881
     30 H10        -1.2280   -5.4370   -1.3040 hc        1 MOL      0.096421
     31 H11        -0.2760   -5.7270   -2.7420 hc        1 MOL      0.096421
     32 H12         0.6410   -3.5360   -2.8290 hc        1 MOL      0.068201
     33 H13        -0.3400   -2.9550   -1.5050 hc        1 MOL      0.068201
     34 H14        -2.4490   -3.5770   -2.7560 hc        1 MOL      0.073255
     35 H15        -1.4570   -4.0930   -4.2470 hc        1 MOL      0.073255
     36 H16        -0.5180   -1.9110   -4.2960 hx        1 MOL      0.012971
     37 H17        -1.8040   -1.3350   -3.0180 hx        1 MOL      0.012971
     38 H18        -3.4280   -1.9680   -4.5260 hn        1 MOL      0.272394
     39 H19        -2.5880   -0.7710   -5.2280 hn        1 MOL      0.272394
     40 H20        -2.3530   -2.2220   -5.7720 hn        1 MOL      0.272394
     41 N4          2.8150   -4.3030   -1.6050 n         1 MOL     -0.094338
     42 C13         4.0660   -4.1050   -2.3130 c3        1 MOL      0.025525
     43 C14         5.2880   -3.7080   -1.5330 c         1 MOL      0.401028
     44 O6          6.4530   -3.8630   -2.0750 o         1 MOL     -0.541823
     45 C15         3.8250   -3.0620   -3.4160 c3        1 MOL     -0.362140
     46 C16         3.2820   -1.6850   -2.9610 c         1 MOL      0.877492
     47 O7          3.9440   -0.9330   -2.2810 o         1 MOL     -0.813749
     48 O8          2.0680   -1.2670   -3.0420 o         1 MOL     -0.813749
     49 H21         2.2640   -3.5060   -1.3120 hn        1 MOL     -0.032246
     50 H22         4.3390   -5.0420   -2.7880 h1        1 MOL      0.133905
     51 H23         3.0570   -3.4320   -4.0850 hc        1 MOL      0.099423
     52 H24         4.7580   -2.9550   -3.9800 hc        1 MOL      0.099423
     53 N5          5.0710   -3.2680   -0.2940 n         1 MOL     -0.052207
     54 C17         5.9870   -2.7620    0.6640 c3        1 MOL     -0.221793
     55 C18         6.6630   -1.4290    0.3580 c         1 MOL      0.528652
     56 O9          7.6550   -1.0380    0.9610 o         1 MOL     -0.548064
     57 H25         4.0900   -3.0350   -0.2010 hn        1 MOL      0.002686
     58 H26         6.7360   -3.5250    0.8650 h1        1 MOL      0.125719
     59 H27         5.5410   -2.6060    1.6440 h1        1 MOL      0.125719
     60 N6          6.0690   -0.6040   -0.5170 n         1 MOL     -0.389096
     61 C19         6.7180    0.6200   -1.0060 c3        1 MOL      0.204176
     62 C20         5.6820    1.7670   -1.0870 c         1 MOL      0.432682
     63 O10         4.4450    1.6550   -0.9160 o         1 MOL     -0.472283
     64 C21         7.4590    0.3280   -2.2710 c3        1 MOL     -0.320840
     65 C22         8.7140   -0.5190   -2.1880 c         1 MOL      0.717733
     66 N7          8.6160   -1.7890   -2.3240 n         1 MOL     -0.764308
     67 O11         9.8480   -0.1210   -2.1270 o         1 MOL     -0.606150
     68 H28         5.2000   -0.9310   -0.9130 hn        1 MOL      0.373555
     69 H29         7.3950    1.0720   -0.2810 h1        1 MOL      0.051932
     70 H30         7.6840    1.3120   -2.6760 hc        1 MOL      0.057167
     71 H31         6.7550   -0.1990   -2.9110 hc        1 MOL      0.057167
     72 H32         7.7400   -2.2840   -2.4380 hn        1 MOL      0.363567
     73 H33         9.5370   -2.2090   -2.4000 hn        1 MOL      0.363567
     74 N8          6.2120    2.9660   -1.3570 n         1 MOL     -0.418965
     75 C23         5.3840    4.2170   -1.2930 c3        1 MOL      0.060147
     76 C24         4.4640    4.3540   -0.0510 c         1 MOL      0.492389
     77 O12         4.8100    3.8630    1.0360 o         1 MOL     -0.481660
     78 H34         7.2130    3.0350   -1.4240 hn        1 MOL      0.321062
     79 H35         4.8620    4.2470   -2.2470 h1        1 MOL      0.037843
     80 H36         6.1010    5.0330   -1.3160 h1        1 MOL      0.037843
     81 N9          3.3150    4.9540   -0.3020 n         1 MOL     -0.491459
     82 C25         2.2190    4.9010    0.7010 c3        1 MOL      0.300910
     83 C26         1.7240    3.4400    1.1630 c         1 MOL      0.318971
     84 O13         2.1850    2.4730    0.5340 o         1 MOL     -0.421621
     85 C27         0.9730    5.5720    0.0800 c3        1 MOL     -0.216582
     86 C28         1.0510    7.0650   -0.2830 ca        1 MOL     -0.030351
     87 C29         1.3560    8.0810    0.6530 ca        1 MOL     -0.044939
     88 C30         0.5280    7.4440   -1.5080 ca        1 MOL     -0.044939
     89 C31         1.3230    9.4050    0.2030 ca        1 MOL     -0.359513
     90 C32         0.5330    8.8720   -1.9360 ca        1 MOL     -0.359513
     91 C33         1.0290    9.8460   -1.0830 ca        1 MOL      0.409565
     92 O14         1.0920   11.1250   -1.3660 oh        1 MOL     -0.408363
     93 H37         3.2380    5.5220   -1.1320 hn        1 MOL      0.251792
     94 H38         2.5050    5.4340    1.6070 h1        1 MOL      0.048508
     95 H39         0.1860    5.6440    0.8400 hc        1 MOL      0.071452
     96 H40         0.5530    4.9750   -0.7270 hc        1 MOL      0.071452
     97 H41         1.5660    7.8400    1.6830 ha        1 MOL      0.103061
     98 H42         0.1710    6.7300   -2.2360 ha        1 MOL      0.103061
     99 H43         1.6570   10.1590    0.9060 ha        1 MOL      0.169826
    100 H44         0.1920    9.1500   -2.9180 ha        1 MOL      0.169826
    101 H45         0.9490   11.1180   -2.3250 ho        1 MOL      0.329684
    102 N10         1.0030    3.3660    2.3270 n         1 MOL     -0.626814
    103 C34         0.7270    2.1450    3.1230 c3        1 MOL      0.211005
    104 C35        -0.0170    0.9560    2.3760 c         1 MOL      0.609110
    105 O15         0.4220    0.4310    1.3000 o         1 MOL     -0.698759
    106 C36         1.8520    1.7150    4.1160 c3        1 MOL      0.289994
    107 C37         1.2190    1.3810    5.5200 c3        1 MOL     -0.018686
    108 C38         3.0150    2.6860    4.2560 c3        1 MOL     -0.152477
    109 C39         2.1760    0.6850    6.4880 c3        1 MOL     -0.275543
    110 H46         0.7160    4.2650    2.6820 hn        1 MOL      0.353538
    111 H47        -0.0410    2.5120    3.7880 h1        1 MOL     -0.033474
    112 H48         2.2760    0.8090    3.6830 hc        1 MOL     -0.020791
    113 H49         0.3840    0.6770    5.4380 hc        1 MOL     -0.004131
    114 H50         0.8190    2.2770    5.9920 hc        1 MOL     -0.004131
    115 H51         2.6430    3.6060    4.7010 hc        1 MOL      0.040544
    116 H52         3.8940    2.2970    4.7670 hc        1 MOL      0.040544
    117 H53         3.4060    2.9670    3.2770 hc        1 MOL      0.040544
    118 H54         2.6330   -0.1340    5.9390 hc        1 MOL      0.076239
    119 H55         2.9560    1.3770    6.7970 hc        1 MOL      0.076239
    120 H56         1.6150    0.4010    7.3790 hc        1 MOL      0.076239
    121 N11        -1.0260    0.4180    3.0460 n         1 MOL     -0.598534
    122 C40        -1.6790   -0.8870    2.7700 c3        1 MOL      0.261268
    123 C41        -2.8630   -0.8650    1.8350 c         1 MOL      0.307422
    124 O16        -3.5500   -1.8970    1.7630 o         1 MOL     -0.447403
    125 C42        -2.0260   -1.5060    4.1340 c3        1 MOL      0.070524
    126 O17        -0.8640   -1.5190    5.0300 oh        1 MOL     -0.545691
    127 H57        -1.1610    0.8330    3.9650 hn        1 MOL      0.276155
    128 H58        -0.8610   -1.4980    2.3810 h1        1 MOL      0.131871
    129 H59        -2.4180   -2.4990    3.9230 h1        1 MOL      0.058775
    130 H60        -2.8460   -0.9890    4.6450 h1        1 MOL      0.058775
    131 H61        -1.1610   -1.7700    5.9180 ho        1 MOL      0.388508
    132 N12        -3.2560    0.3020    1.2540 n         1 MOL     -0.366795
    133 C43        -4.4520    0.3090    0.4660 c3        1 MOL     -0.044856
    134 C44        -4.1170   -0.6540   -0.7510 c         1 MOL      0.687258
    135 O18        -2.9430   -0.8500   -1.1940 o         1 MOL     -0.561139
    136 C45        -4.7390    1.7390    0.1340 c3        1 MOL     -0.077865
    137 H62        -2.6990    1.1330    1.2710 hn        1 MOL      0.262761
    138 H63        -5.1890   -0.1650    1.1170 h1        1 MOL      0.161019
    139 H64        -4.7880    2.4140    0.9870 hc        1 MOL      0.034273
    140 H65        -3.9400    2.1070   -0.5090 hc        1 MOL      0.034273
    141 H66        -5.7050    1.6580   -0.3780 hc        1 MOL      0.034273
    142 N13        -5.1300   -1.1850   -1.4520 n         1 MOL     -0.612076
    143 C46        -6.5180   -1.2250   -1.0970 c3        1 MOL      0.208491
    144 C47        -7.4720   -0.3320   -1.9260 c         1 MOL      0.488742
    145 O19        -7.0680    0.3110   -2.8910 o         1 MOL     -0.554148
    146 C48        -6.9650   -2.6750   -1.2860 c3        1 MOL     -0.336412
    147 H67        -4.9020   -1.9000   -2.1180 hn        1 MOL      0.336622
    148 H68        -6.6620   -0.9240   -0.0620 h1        1 MOL      0.007412
    149 H69        -8.0240   -2.6940   -1.0490 hc        1 MOL      0.110123
    150 H70        -6.7390   -3.1820   -2.2240 hc        1 MOL      0.110123
    151 H71        -6.4860   -3.3260   -0.5450 hc        1 MOL      0.110123
    152 N14        -8.7480   -0.1230   -1.5130 n         1 MOL     -0.423035
    153 C49        -9.4980   -0.4340   -0.2450 c3        1 MOL     -0.237459
    154 C50        -9.2400    0.6630    0.8820 c         1 MOL      0.600414
    155 O20        -9.2770    0.2770    2.0260 o         1 MOL     -0.535373
    156 C51       -10.9250   -0.7700   -0.5770 c3        1 MOL      0.258150
    157 C52       -11.7440    0.4660   -1.0490 c3        1 MOL     -0.230578
    158 C53       -12.9710    0.1280   -1.7900 c         1 MOL      0.724156
    159 O21       -12.8110   -0.2080   -2.9740 o         1 MOL     -0.678705
    160 O22       -14.1450    0.1220   -1.2920 o         1 MOL     -0.678705
    161 H72        -9.3080    0.3780   -2.1880 hn        1 MOL      0.309578
    162 H73        -9.0970   -1.3830    0.1200 h1        1 MOL      0.105013
    163 H74       -11.4810   -1.3310    0.1730 hc        1 MOL     -0.012368
    164 H75       -10.9660   -1.4030   -1.4630 hc        1 MOL     -0.012368
    165 H76       -11.0670    0.9850   -1.7230 hc        1 MOL      0.004682
    166 H77       -11.8790    1.2070   -0.2710 hc        1 MOL      0.004682
    167 N15        -9.0170    1.9570    0.5380 n         1 MOL     -0.310155
    168 C54        -8.7260    3.0710    1.4850 c3        1 MOL     -0.188029
    169 H78        -7.6510    3.2520    1.5130 h1        1 MOL      0.104524
    170 H79        -9.2370    3.9750    1.1520 h1        1 MOL      0.104524
    171 H80        -9.0740    2.8020    2.4820 h1        1 MOL      0.104524
    172 H81        -8.8840    2.1350   -0.4400 hn        1 MOL      0.254550
    173 Ca1         2.1340    0.3540   -0.9040 Ca        1 MOL      1.844214
    174 O23         2.0940    2.1380   -2.7850 oh        1 MOL     -0.935369
    175 H82         2.8890    2.1010   -3.3080 ho        1 MOL      0.449187
    176 H83         1.6580    2.9410   -3.0640 ho        1 MOL      0.449187
    177 O24        -0.4470    0.3050   -1.4680 oh        1 MOL     -0.935369
    178 H84        -1.2900   -0.1710   -1.4520 ho        1 MOL      0.449187
    179 H85        -0.6540    1.1600   -1.1010 ho        1 MOL      0.449187
@<TRIPOS>BOND
     1    1    2 1   
     2    1    4 1   
     3    1    5 1   
     4    1    6 1   
     5    2    3 2   
     6    2    7 1   
     7    7    8 1   
     8    7   15 1   
     9    8    9 1   
    10    8   11 1   
    11    8   16 1   
    12    9   10 2   
    13    9   19 1   
    14   11   12 1   
    15   11   17 1   
    16   11   18 1   
    17   12   13 1   
    18   12   14 1   
    19   19   20 1   
    20   19   28 1   
    21   20   21 1   
    22   20   23 1   
    23   20   29 1   
    24   21   22 2   
    25   21   41 1   
    26   23   24 1   
    27   23   30 1   
    28   23   31 1   
    29   24   25 1   
    30   24   32 1   
    31   24   33 1   
    32   25   26 1   
    33   25   34 1   
    34   25   35 1   
    35   26   27 1   
    36   26   36 1   
    37   26   37 1   
    38   27   38 1   
    39   27   39 1   
    40   27   40 1   
    41   41   42 1   
    42   41   49 1   
    43   42   43 1   
    44   42   45 1   
    45   42   50 1   
    46   43   44 2   
    47   43   53 1   
    48   45   46 1   
    49   45   51 1   
    50   45   52 1   
    51   46   47 1   
    52   46   48 1   
    53   53   54 1   
    54   53   57 1   
    55   54   55 1   
    56   54   58 1   
    57   54   59 1   
    58   55   56 2   
    59   55   60 1   
    60   60   61 1   
    61   60   68 1   
    62   61   62 1   
    63   61   64 1   
    64   61   69 1   
    65   62   63 2   
    66   62   74 1   
    67   64   65 1   
    68   64   70 1   
    69   64   71 1   
    70   65   66 1   
    71   65   67 2   
    72   66   72 1   
    73   66   73 1   
    74   74   75 1   
    75   74   78 1   
    76   75   76 1   
    77   75   79 1   
    78   75   80 1   
    79   76   77 2   
    80   76   81 1   
    81   81   82 1   
    82   81   93 1   
    83   82   83 1   
    84   82   85 1   
    85   82   94 1   
    86   83   84 2   
    87   83  102 1   
    88   85   86 1   
    89   85   95 1   
    90   85   96 1   
    91   86   87 ar  
    92   86   88 ar  
    93   87   89 ar  
    94   87   97 1   
    95   88   90 ar  
    96   88   98 1   
    97   89   91 ar  
    98   89   99 1   
    99   90   91 ar  
   100   90  100 1   
   101   91   92 1   
   102   92  101 1   
   103  102  103 1   
   104  102  110 1   
   105  103  104 1   
   106  103  106 1   
   107  103  111 1   
   108  104  105 2   
   109  104  121 1   
   110  106  107 1   
   111  106  108 1   
   112  106  112 1   
   113  107  109 1   
   114  107  113 1   
   115  107  114 1   
   116  108  115 1   
   117  108  116 1   
   118  108  117 1   
   119  109  118 1   
   120  109  119 1   
   121  109  120 1   
   122  121  122 1   
   123  121  127 1   
   124  122  123 1   
   125  122  125 1   
   126  122  128 1   
   127  123  124 2   
   128  123  132 1   
   129  125  126 1   
   130  125  129 1   
   131  125  130 1   
   132  126  131 1   
   133  132  133 1   
   134  132  137 1   
   135  133  134 1   
   136  133  136 1   
   137  133  138 1   
   138  134  135 2   
   139  134  142 1   
   140  136  139 1   
   141  136  140 1   
   142  136  141 1   
   143  142  143 1   
   144  142  147 1   
   145  143  144 1   
   146  143  146 1   
   147  143  148 1   
   148  144  145 2   
   149  144  152 1   
   150  146  149 1   
   151  146  150 1   
   152  146  151 1   
   153  152  153 1   
   154  152  161 1   
   155  153  154 1   
   156  153  156 1   
   157  153  162 1   
   158  154  155 2   
   159  154  167 1   
   160  156  157 1   
   161  156  163 1   
   162  156  164 1   
   163  157  158 1   
   164  157  165 1   
   165  157  166 1   
   166  158  159 1   
   167  158  160 1   
   168  167  168 1   
   169  167  172 1   
   170  168  169 1   
   171  168  170 1   
   172  168  171 1   
   173  174  175 1   
   174  174  176 1   
   175  177  178 1   
   176  177  179 1   
@<TRIPOS>SUBSTRUCTURE
     1 MOL         1 TEMP              0 ****  ****    0 ROOT
