@<TRIPOS>MOLECULE
MOL
  192   187     1     0     0
SMALL
resp


@<TRIPOS>ATOM
      1 C1         -6.7030   -2.8180    5.0380 c3        1 MOL     -0.349910
      2 C2         -5.9210   -2.2960    3.8470 c         1 MOL      0.864797
      3 O1         -5.6810   -3.0250    2.9160 o         1 MOL     -0.636850
      4 H1         -6.0680   -2.8020    5.9230 hc        1 MOL      0.082423
      5 H2         -7.5760   -2.1870    5.2060 hc        1 MOL      0.082423
      6 H3         -7.0260   -3.8410    4.8410 hc        1 MOL      0.082423
      7 N1         -5.4540   -1.0700    3.7920 n         1 MOL     -0.759243
      8 C3         -4.9700   -0.4640    2.5760 c3        1 MOL      0.534980
      9 C4         -3.5270   -0.7730    2.1210 c         1 MOL     -0.038454
     10 O2         -3.1260   -0.3040    1.0460 o         1 MOL     -0.087834
     11 C5         -5.1770    1.0620    2.5420 c3        1 MOL     -0.006997
     12 C6         -6.6220    1.4590    2.6390 c         1 MOL      0.685657
     13 O3         -7.1140    1.1990    3.7770 o         1 MOL     -0.721019
     14 O4         -7.1630    2.0580    1.6800 o         1 MOL     -0.721019
     15 H4         -5.5940   -0.4500    4.5720 hn        1 MOL      0.314616
     16 H5         -5.5800   -0.8630    1.7620 h1        1 MOL     -0.010389
     17 H6         -4.7070    1.6070    1.7220 hc        1 MOL     -0.053225
     18 H7         -4.7590    1.3520    3.5080 hc        1 MOL     -0.053225
     19 N2         -2.7570   -1.3340    3.0130 n         1 MOL     -0.267226
     20 C7         -1.3050   -1.2390    2.9430 c3        1 MOL      0.180188
     21 C8         -0.7390   -2.4550    2.1400 c         1 MOL      0.303229
     22 O5         -1.1520   -3.6190    2.4110 o         1 MOL     -0.508351
     23 C9         -0.6860   -1.0240    4.3240 c3        1 MOL     -0.208353
     24 C10        -1.1890    0.2790    4.9420 c3        1 MOL      0.215588
     25 C11        -0.4530    0.6860    6.2170 c3        1 MOL     -0.148678
     26 C12        -0.3720    2.2370    6.3280 c3        1 MOL      0.133059
     27 N3          0.3860    2.7440    7.4830 n4        1 MOL     -0.446009
     28 H8         -3.1310   -1.8670    3.7870 hn        1 MOL      0.249709
     29 H9         -1.1500   -0.3780    2.2790 h1        1 MOL      0.077065
     30 H10         0.3810   -0.8640    4.1610 hc        1 MOL      0.068801
     31 H11        -0.8860   -1.8590    4.9940 hc        1 MOL      0.068801
     32 H12        -2.2570    0.2700    5.1670 hc        1 MOL     -0.033344
     33 H13        -1.0810    1.0510    4.1820 hc        1 MOL     -0.033344
     34 H14         0.5600    0.2980    6.1700 hc        1 MOL      0.045265
     35 H15        -0.9610    0.3000    7.0960 hc        1 MOL      0.045265
     36 H16        -1.3410    2.7160    6.4040 hx        1 MOL      0.086126
     37 H17         0.1590    2.5930    5.4330 hx        1 MOL      0.086126
     38 H18         1.3510    2.4750    7.3310 hn        1 MOL      0.339675
     39 H19         0.3380    3.7410    7.5810 hn        1 MOL      0.339675
     40 H20         0.0500    2.3190    8.3290 hn        1 MOL      0.339675
     41 N4          0.2430   -2.3090    1.3190 n         1 MOL     -0.064592
     42 C13         0.9470   -1.1600    0.7060 c3        1 MOL     -0.603184
     43 C14         1.5120   -0.0780    1.6660 c         1 MOL      0.885215
     44 O6          0.8450    0.8980    1.8700 o         1 MOL     -0.654481
     45 C15         0.2490   -0.6720   -0.4610 c3        1 MOL     -0.569471
     46 C16         0.1830   -1.6850   -1.5720 c         1 MOL      0.623600
     47 O7          0.8890   -2.7240   -1.6420 o         1 MOL     -0.668284
     48 O8         -0.6620   -1.4410   -2.4670 o         1 MOL     -0.668284
     49 H21         0.6440   -3.1920    1.0250 hn        1 MOL      0.165236
     50 H22         1.8440   -1.6260    0.3080 h1        1 MOL      0.051961
     51 H23         0.7620    0.1930   -0.8850 hc        1 MOL      0.321500
     52 H24        -0.7200   -0.3270   -0.1270 hc        1 MOL      0.321500
     53 N5          2.7130   -0.2420    2.2260 n         1 MOL     -0.490115
     54 C17         3.5320   -1.4650    2.1570 c3        1 MOL     -0.144706
     55 C18         4.7150   -1.5420    3.1170 c         1 MOL      0.607042
     56 O9          4.7750   -0.8130    4.1130 o         1 MOL     -0.568721
     57 H25         3.0960    0.5880    2.6650 hn        1 MOL      0.289420
     58 H26         3.9790   -1.3840    1.1690 h1        1 MOL      0.175668
     59 H27         2.9390   -2.3750    2.1640 h1        1 MOL      0.175668
     60 N6          5.6660   -2.4100    2.9320 n         1 MOL     -0.535677
     61 C19         5.8190   -3.3920    1.8630 c3        1 MOL      0.155201
     62 C20         6.6250   -2.8120    0.6540 c         1 MOL      0.269576
     63 O10         7.3960   -1.8970    0.8470 o         1 MOL     -0.389447
     64 C21         6.4590   -4.6850    2.4320 c3        1 MOL     -0.169695
     65 C22         7.8710   -4.3980    2.9160 c         1 MOL      0.738858
     66 O11         8.0490   -4.1680    4.1390 o         1 MOL     -0.663304
     67 O12         8.9000   -4.5510    2.1800 o         1 MOL     -0.663304
     68 H28         6.4250   -2.3040    3.6020 hn        1 MOL      0.331489
     69 H29         4.8470   -3.7150    1.4830 h1        1 MOL     -0.011072
     70 H30         6.4430   -5.4210    1.6310 hc        1 MOL      0.026197
     71 H31         5.9650   -5.2040    3.2450 hc        1 MOL      0.026197
     72 N7          6.5310   -3.3330   -0.5950 n         1 MOL     -0.207441
     73 C23         7.1360   -2.7340   -1.8010 c3        1 MOL     -0.319879
     74 C24         6.6150   -1.2790   -2.3010 c         1 MOL      0.549452
     75 O13         7.1650   -0.7390   -3.2640 o         1 MOL     -0.550328
     76 H32         6.0930   -4.2440   -0.6340 hn        1 MOL      0.197156
     77 H33         7.0200   -3.3970   -2.6490 h1        1 MOL      0.165064
     78 H34         8.1980   -2.6530   -1.5460 h1        1 MOL      0.165064
     79 N8          5.6120   -0.6760   -1.6610 n         1 MOL     -0.326933
     80 C25         4.9350    0.5750   -2.0360 c3        1 MOL      0.227449
     81 C26         4.9500    1.6110   -0.8980 c         1 MOL      0.420832
     82 O14         4.4960    1.3050    0.1930 o         1 MOL     -0.473580
     83 C27         3.5370    0.4020   -2.6540 c3        1 MOL      0.230695
     84 C28         3.3640   -0.3940   -3.8960 c3        1 MOL     -0.505524
     85 O15         2.9880    1.6250   -3.0530 oh        1 MOL     -0.667447
     86 H35         5.1120   -1.3690   -1.1210 hn        1 MOL      0.083611
     87 H36         5.5530    1.0700   -2.8030 h1        1 MOL      0.027312
     88 H37         2.9210    0.1150   -1.7970 h1        1 MOL      0.163211
     89 H38         2.3240    1.3890   -3.7050 ho        1 MOL      0.425879
     90 H39         2.3040   -0.4840   -4.1000 hc        1 MOL      0.142380
     91 H40         3.7770    0.1260   -4.7690 hc        1 MOL      0.142380
     92 H41         3.7010   -1.4230   -3.7870 hc        1 MOL      0.142380
     93 N9          5.2980    2.8640   -1.1980 n         1 MOL     -0.412369
     94 C29         5.2620    4.1430   -0.3520 c3        1 MOL      0.017049
     95 C30         4.0520    4.9980   -0.5870 c         1 MOL      0.489123
     96 O16         3.9770    6.1980   -0.2770 o         1 MOL     -0.510741
     97 C31         6.6170    4.8990   -0.2050 c3        1 MOL      0.241336
     98 C32         7.2820    5.2720   -1.5700 c3        1 MOL     -0.120638
     99 C33         7.6560    4.1140    0.6240 c3        1 MOL     -0.374549
    100 C34         6.4510    6.1440   -2.5400 c3        1 MOL     -0.105302
    101 H42         5.4930    3.0020   -2.1830 hn        1 MOL      0.284143
    102 H43         5.1300    3.8610    0.6920 h1        1 MOL      0.082073
    103 H44         6.3820    5.8120    0.3360 hc        1 MOL     -0.004992
    104 H45         7.4600    4.3550   -2.1410 hc        1 MOL      0.042267
    105 H46         8.2230    5.7940   -1.3920 hc        1 MOL      0.042267
    106 H47         7.9800    3.2400    0.0620 hc        1 MOL      0.099313
    107 H48         8.4230    4.8380    0.9030 hc        1 MOL      0.099313
    108 H49         7.2240    3.8120    1.5820 hc        1 MOL      0.099313
    109 H50         7.1760    6.3270   -3.3340 hc        1 MOL      0.031938
    110 H51         5.5780    5.6830   -2.9950 hc        1 MOL      0.031938
    111 H52         6.1430    7.1700   -2.3180 hc        1 MOL      0.031938
    112 N10         2.9520    4.2310   -0.9270 n         1 MOL     -0.189323
    113 C35         1.6700    4.8590   -0.9320 c3        1 MOL     -0.528262
    114 C36         0.5520    3.8780   -0.7390 c         1 MOL      0.905165
    115 O17         0.4800    2.9120   -1.4140 o         1 MOL     -0.472387
    116 C37         1.3250    5.8830   -2.0450 c3        1 MOL      0.604992
    117 C38         1.3760    5.2420   -3.4190 c3        1 MOL     -0.433940
    118 O18         2.1930    6.9700   -1.9330 oh        1 MOL     -0.682124
    119 H53         2.9510    3.2450   -1.1490 hn        1 MOL      0.169646
    120 H54         1.6090    5.4530   -0.0260 h1        1 MOL      0.116998
    121 H55         0.3130    6.2880   -1.9350 h1        1 MOL     -0.010927
    122 H56         2.9430    6.6220   -1.4480 ho        1 MOL      0.404779
    123 H57         1.2360    6.0280   -4.1520 hc        1 MOL      0.103762
    124 H58         2.2530    4.6090   -3.6080 hc        1 MOL      0.103762
    125 H59         0.5340    4.5390   -3.4260 hc        1 MOL      0.103762
    126 N11        -0.5110    4.2310    0.0520 n         1 MOL     -0.803617
    127 C39        -1.6310    3.2920    0.2880 c3        1 MOL      0.142586
    128 C40        -2.5420    3.0620   -0.9660 c         1 MOL      0.401789
    129 O19        -2.7170    3.9430   -1.8510 o         1 MOL     -0.539203
    130 C41        -2.4030    3.5080    1.6470 c3        1 MOL      0.760304
    131 C42        -3.4720    4.6030    1.6290 c3        1 MOL     -0.309035
    132 O20        -1.4520    3.8130    2.6550 oh        1 MOL     -0.825889
    133 H60        -0.4880    5.0400    0.6550 hn        1 MOL      0.334485
    134 H61        -1.2680    2.2700    0.3530 h1        1 MOL     -0.042343
    135 H62        -2.8520    2.5820    1.9910 h1        1 MOL     -0.054729
    136 H63        -0.5990    3.9330    2.2440 ho        1 MOL      0.428767
    137 H64        -3.0150    5.5640    1.3900 hc        1 MOL      0.062244
    138 H65        -4.1470    4.4070    0.7960 hc        1 MOL      0.062244
    139 H66        -4.1180    4.6450    2.5030 hc        1 MOL      0.062244
    140 N12        -3.1670    1.8920   -1.0270 n         1 MOL      0.005828
    141 C43        -4.2920    1.6040   -1.9130 c3        1 MOL     -0.136983
    142 C44        -4.5060    0.1260   -2.3460 c         1 MOL      0.610116
    143 O21        -4.8390   -0.2040   -3.5270 o         1 MOL     -0.626508
    144 C45        -5.5920    2.2610   -1.4790 c3        1 MOL      0.080686
    145 C46        -6.7180    2.3920   -2.4960 c3        1 MOL      0.055552
    146 C47        -8.0500    3.1060   -2.0540 c3        1 MOL      0.105768
    147 C48        -8.9500    3.3330   -3.2420 c3        1 MOL     -0.012054
    148 N13       -10.2450    3.9350   -2.7910 n4        1 MOL     -0.219146
    149 H67        -2.8940    1.2110   -0.3320 hn        1 MOL     -0.239255
    150 H68        -4.0200    2.0720   -2.8550 h1        1 MOL      0.080847
    151 H69        -5.2570    3.2270   -1.1150 hc        1 MOL     -0.021740
    152 H70        -5.9570    1.6420   -0.6580 hc        1 MOL     -0.021740
    153 H71        -6.9440    1.4350   -2.9640 hc        1 MOL     -0.018285
    154 H72        -6.2320    2.9210   -3.3140 hc        1 MOL     -0.018285
    155 H73        -7.7340    4.0980   -1.7420 hc        1 MOL      0.005547
    156 H74        -8.4340    2.5840   -1.1730 hc        1 MOL      0.005547
    157 H75        -9.2230    2.4080   -3.7480 hx        1 MOL      0.076384
    158 H76        -8.5000    4.0370   -3.9390 hx        1 MOL      0.076384
    159 H77       -10.7720    3.3900   -2.1220 hn        1 MOL      0.284200
    160 H78        -9.8940    4.7510   -2.3110 hn        1 MOL      0.284200
    161 H79       -10.8330    4.2340   -3.5460 hn        1 MOL      0.284200
    162 N14        -4.2630   -0.7700   -1.4070 n         1 MOL     -0.023358
    163 C49        -4.3830   -2.2030   -1.5360 c3        1 MOL     -0.455745
    164 C50        -5.8620   -2.6230   -1.4990 c         1 MOL      0.441870
    165 O22        -6.6460   -2.0480   -0.7780 o         1 MOL     -0.464253
    166 C51        -3.5680   -2.9680   -0.4350 c3        1 MOL      0.539832
    167 C52        -3.6130   -4.5010   -0.4960 c3        1 MOL     -0.281082
    168 C53        -3.1840   -4.8870   -1.8990 c         1 MOL      0.498078
    169 O23        -1.9930   -4.6910   -2.2330 o         1 MOL     -0.685144
    170 O24        -3.9740   -5.3500   -2.7290 o         1 MOL     -0.685144
    171 H80        -3.9820   -0.4040   -0.5160 hn        1 MOL      0.046035
    172 H81        -4.0010   -2.3990   -2.5430 h1        1 MOL      0.218878
    173 H82        -4.0740   -2.8480    0.5220 hc        1 MOL     -0.054296
    174 H83        -2.5280   -2.6680   -0.3390 hc        1 MOL     -0.054296
    175 H84        -4.6560   -4.7880   -0.3290 hc        1 MOL      0.079093
    176 H85        -2.9600   -4.8980    0.2730 hc        1 MOL      0.079093
    177 N15        -6.2650   -3.6820   -2.2930 n         1 MOL     -0.338386
    178 C54        -7.6520   -4.1630   -2.5390 c3        1 MOL     -0.021245
    179 H86        -7.7170   -4.5870   -3.5410 h1        1 MOL      0.044411
    180 H87        -7.9070   -4.9280   -1.8050 h1        1 MOL      0.044411
    181 H88        -8.3480   -3.3280   -2.4510 h1        1 MOL      0.044411
    182 H89        -5.5700   -4.1200   -2.8850 hn        1 MOL      0.330360
    183 Ca1         0.4050   -4.8670   -2.8000 Ca        1 MOL      1.645691
    184 O25         2.3340   -4.0430   -4.5160 oh        1 MOL     -0.816990
    185 H90         3.2250   -3.7100   -4.3580 ho        1 MOL      0.407917
    186 H91         2.4560   -4.7300   -5.1600 ho        1 MOL      0.407917
    187 O26        -0.6700   -3.4990   -5.0810 oh        1 MOL     -0.816990
    188 H92        -0.6400   -3.6840   -6.0200 ho        1 MOL      0.407917
    189 H93        -1.3930   -2.8730   -4.9870 ho        1 MOL      0.407917
    190 O27         1.6180   -6.6060   -4.6220 oh        1 MOL     -0.816990
    191 H94         1.6150   -6.7420   -5.5680 ho        1 MOL      0.407917
    192 H95         2.3910   -7.0800   -4.3120 ho        1 MOL      0.407917
@<TRIPOS>BOND
     1    1    2 1   
     2    1    4 1   
     3    1    5 1   
     4    1    6 1   
     5    2    3 2   
     6    2    7 1   
     7    7    8 1   
     8    7   15 1   
     9    8    9 1   
    10    8   11 1   
    11    8   16 1   
    12    9   10 2   
    13    9   19 1   
    14   11   12 1   
    15   11   17 1   
    16   11   18 1   
    17   12   13 1   
    18   12   14 1   
    19   19   20 1   
    20   19   28 1   
    21   20   21 1   
    22   20   23 1   
    23   20   29 1   
    24   21   22 2   
    25   21   41 1   
    26   23   24 1   
    27   23   30 1   
    28   23   31 1   
    29   24   25 1   
    30   24   32 1   
    31   24   33 1   
    32   25   26 1   
    33   25   34 1   
    34   25   35 1   
    35   26   27 1   
    36   26   36 1   
    37   26   37 1   
    38   27   38 1   
    39   27   39 1   
    40   27   40 1   
    41   41   42 1   
    42   41   49 1   
    43   42   43 1   
    44   42   45 1   
    45   42   50 1   
    46   43   44 2   
    47   43   53 1   
    48   45   46 1   
    49   45   51 1   
    50   45   52 1   
    51   46   47 1   
    52   46   48 1   
    53   53   54 1   
    54   53   57 1   
    55   54   55 1   
    56   54   58 1   
    57   54   59 1   
    58   55   56 2   
    59   55   60 1   
    60   60   61 1   
    61   60   68 1   
    62   61   62 1   
    63   61   64 1   
    64   61   69 1   
    65   62   63 2   
    66   62   72 1   
    67   64   65 1   
    68   64   70 1   
    69   64   71 1   
    70   65   66 1   
    71   65   67 1   
    72   72   73 1   
    73   72   76 1   
    74   73   74 1   
    75   73   77 1   
    76   73   78 1   
    77   74   75 2   
    78   74   79 1   
    79   79   80 1   
    80   79   86 1   
    81   80   81 1   
    82   80   83 1   
    83   80   87 1   
    84   81   82 2   
    85   81   93 1   
    86   83   84 1   
    87   83   85 1   
    88   83   88 1   
    89   84   90 1   
    90   84   91 1   
    91   84   92 1   
    92   85   89 1   
    93   93   94 1   
    94   93  101 1   
    95   94   95 1   
    96   94   97 1   
    97   94  102 1   
    98   95   96 2   
    99   95  112 1   
   100   97   98 1   
   101   97   99 1   
   102   97  103 1   
   103   98  100 1   
   104   98  104 1   
   105   98  105 1   
   106   99  106 1   
   107   99  107 1   
   108   99  108 1   
   109  100  109 1   
   110  100  110 1   
   111  100  111 1   
   112  112  113 1   
   113  112  119 1   
   114  113  114 1   
   115  113  116 1   
   116  113  120 1   
   117  114  115 2   
   118  114  126 1   
   119  116  117 1   
   120  116  118 1   
   121  116  121 1   
   122  117  123 1   
   123  117  124 1   
   124  117  125 1   
   125  118  122 1   
   126  126  127 1   
   127  126  133 1   
   128  127  128 1   
   129  127  130 1   
   130  127  134 1   
   131  128  129 2   
   132  128  140 1   
   133  130  131 1   
   134  130  132 1   
   135  130  135 1   
   136  131  137 1   
   137  131  138 1   
   138  131  139 1   
   139  132  136 1   
   140  140  141 1   
   141  140  149 1   
   142  141  142 1   
   143  141  144 1   
   144  141  150 1   
   145  142  143 2   
   146  142  162 1   
   147  144  145 1   
   148  144  151 1   
   149  144  152 1   
   150  145  146 1   
   151  145  153 1   
   152  145  154 1   
   153  146  147 1   
   154  146  155 1   
   155  146  156 1   
   156  147  148 1   
   157  147  157 1   
   158  147  158 1   
   159  148  159 1   
   160  148  160 1   
   161  148  161 1   
   162  162  163 1   
   163  162  171 1   
   164  163  164 1   
   165  163  166 1   
   166  163  172 1   
   167  164  165 2   
   168  164  177 1   
   169  166  167 1   
   170  166  173 1   
   171  166  174 1   
   172  167  168 1   
   173  167  175 1   
   174  167  176 1   
   175  168  169 1   
   176  168  170 1   
   177  177  178 1   
   178  177  182 1   
   179  178  179 1   
   180  178  180 1   
   181  178  181 1   
   182  184  185 1   
   183  184  186 1   
   184  187  188 1   
   185  187  189 1   
   186  190  191 1   
   187  190  192 1   
@<TRIPOS>SUBSTRUCTURE
     1 MOL         1 TEMP              0 ****  ****    0 ROOT
