@<TRIPOS>MOLECULE
MOL
  186   183     1     0     0
SMALL
resp


@<TRIPOS>ATOM
      1 C1         12.7020    3.9420   -4.2120 c3        1 MOL     -0.515687
      2 C2         12.3880    3.0100   -3.0490 c         1 MOL      0.713095
      3 O1         12.9200    1.9390   -3.0340 o         1 MOL     -0.589329
      4 H1         11.9400    3.8290   -4.9830 hc        1 MOL      0.129929
      5 H2         12.7110    4.9730   -3.8590 hc        1 MOL      0.129929
      6 H3         13.6770    3.6900   -4.6260 hc        1 MOL      0.129929
      7 N1         11.6610    3.4680   -2.0530 n         1 MOL     -0.153521
      8 C3         11.4810    2.7810   -0.7970 c3        1 MOL     -0.500044
      9 C4         10.2650    1.7850   -0.7880 c         1 MOL      0.526348
     10 O2          9.3140    2.0220   -1.5160 o         1 MOL     -0.598424
     11 C5         11.3700    3.6900    0.4600 c3        1 MOL      0.272964
     12 C6         10.4600    4.9120    0.3280 c         1 MOL      0.706635
     13 O3          9.7550    5.0090   -0.7010 o         1 MOL     -0.739850
     14 O4         10.3850    5.7360    1.2240 o         1 MOL     -0.739850
     15 H4         11.3220    4.4050   -2.2360 hn        1 MOL      0.140444
     16 H5         12.3440    2.1430   -0.5920 h1        1 MOL      0.133438
     17 H6         12.3880    4.0160    0.6730 hc        1 MOL     -0.024178
     18 H7         11.0250    3.1110    1.3110 hc        1 MOL     -0.024178
     19 N2         10.2160    0.7220   -0.0470 n         1 MOL     -0.092340
     20 C7          9.3430   -0.4570   -0.2410 c3        1 MOL     -0.472881
     21 C8          7.8300   -0.1800   -0.0140 c         1 MOL      0.737002
     22 O5          7.0000   -0.8350   -0.5220 o         1 MOL     -0.567106
     23 C9          9.8560   -1.7750    0.4240 c3        1 MOL      0.047353
     24 C10         9.6020   -1.7610    1.9070 c3        1 MOL      0.282533
     25 C11        10.0400   -3.0270    2.6020 c3        1 MOL     -0.067402
     26 C12        10.2100   -2.8440    4.1050 c3        1 MOL      0.033729
     27 N3         10.2620   -4.0780    4.8600 n4        1 MOL     -0.297916
     28 H8         10.9550    0.6100    0.6250 hn        1 MOL      0.191147
     29 H9          9.2890   -0.6420   -1.3140 h1        1 MOL      0.191337
     30 H10        10.9200   -1.9620    0.2530 hc        1 MOL      0.026011
     31 H11         9.4330   -2.6490   -0.0700 hc        1 MOL      0.026011
     32 H12         8.5760   -1.4690    2.1390 hc        1 MOL     -0.079897
     33 H13        10.3150   -0.9880    2.1760 hc        1 MOL     -0.079897
     34 H14        10.9580   -3.4380    2.1780 hc        1 MOL      0.020809
     35 H15         9.3340   -3.8070    2.3230 hc        1 MOL      0.020809
     36 H16         9.4440   -2.1810    4.5240 hx        1 MOL      0.079217
     37 H17        11.0820   -2.2190    4.2890 hx        1 MOL      0.079217
     38 H18        10.3480   -3.7520    5.8200 hn        1 MOL      0.317907
     39 H19         9.5710   -4.7930    4.6980 hn        1 MOL      0.317907
     40 H20        11.1640   -4.5300    4.7830 hn        1 MOL      0.317907
     41 N4          7.5010    0.8270    0.7770 n         1 MOL     -0.195477
     42 C13         6.1260    1.1350    1.2440 c3        1 MOL     -0.064301
     43 C14         5.4270    1.5830   -0.0190 c         1 MOL      0.260733
     44 O6          5.7790    2.4750   -0.8340 o         1 MOL     -0.659910
     45 C15         6.0470    2.2140    2.3700 c3        1 MOL     -0.135436
     46 C16         7.0970    3.3400    2.3060 c         1 MOL      0.431896
     47 O7          7.4690    3.7950    3.4350 o         1 MOL     -0.570831
     48 O8          7.5910    3.7130    1.2500 o         1 MOL     -0.570831
     49 H21         8.2670    1.4180    1.0720 hn        1 MOL      0.203205
     50 H22         5.7220    0.1580    1.5140 h1        1 MOL      0.120240
     51 H23         6.0570    1.7310    3.3450 hc        1 MOL      0.086455
     52 H24         5.1460    2.8050    2.2150 hc        1 MOL      0.086455
     53 N5          4.2780    0.9750   -0.3680 n         1 MOL     -0.100716
     54 C17         3.4730   -0.0330    0.3140 c3        1 MOL     -0.327844
     55 C18         3.6050   -1.4740   -0.1480 c         1 MOL      0.759520
     56 O9          3.0150   -1.9580   -1.0850 o         1 MOL     -0.581937
     57 H25         3.9710    1.3380   -1.2510 hn        1 MOL      0.250314
     58 H26         2.4920    0.2050   -0.0650 h1        1 MOL      0.136694
     59 H27         3.4950    0.0480    1.4080 h1        1 MOL      0.136694
     60 N6          4.3810   -2.2750    0.6360 n         1 MOL     -0.555678
     61 C19         4.5770   -3.7140    0.4760 c3        1 MOL      0.215348
     62 C20         3.3310   -4.5880    0.8680 c         1 MOL      0.498158
     63 O10         2.5870   -4.2530    1.7720 o         1 MOL     -0.465968
     64 C21         5.8100   -4.2520    1.1570 c3        1 MOL     -0.257408
     65 C22         5.7550   -4.0890    2.6930 c         1 MOL      0.678136
     66 O11         5.9120   -2.9190    3.1710 o         1 MOL     -0.687119
     67 O12         5.6620   -5.1100    3.4740 o         1 MOL     -0.687119
     68 H28         4.9280   -1.8020    1.3430 hn        1 MOL      0.265202
     69 H29         4.7570   -3.9430   -0.5750 h1        1 MOL      0.006889
     70 H30         6.6760   -3.7080    0.7980 hc        1 MOL      0.036499
     71 H31         5.9750   -5.2860    0.8500 hc        1 MOL      0.036499
     72 N7          3.1390   -5.7590    0.1980 n         1 MOL     -0.327096
     73 C23         2.0570   -6.6720    0.3620 c3        1 MOL     -0.182238
     74 C24         0.7390   -6.2600   -0.2930 c         1 MOL      0.582326
     75 O13        -0.0650   -7.1560   -0.6420 o         1 MOL     -0.569641
     76 H32         3.8550   -5.9660   -0.4820 hn        1 MOL      0.264477
     77 H33         1.8440   -6.7260    1.4360 h1        1 MOL      0.112996
     78 H34         2.3630   -7.6880    0.0790 h1        1 MOL      0.112996
     79 N8          0.5120   -4.9310   -0.5190 n         1 MOL     -0.360631
     80 C25        -0.5470   -4.3640   -1.4150 c3        1 MOL     -0.045781
     81 C26        -0.9840   -2.9740   -0.9400 c         1 MOL      0.519536
     82 O14        -0.1970   -2.1500   -0.3820 o         1 MOL     -0.467894
     83 C27        -0.0960   -4.2450   -2.9330 c3        1 MOL      0.221156
     84 C28         0.9560   -3.2560   -3.2150 c3        1 MOL      0.011766
     85 O15         0.4070   -5.4810   -3.4050 oh        1 MOL     -0.573607
     86 H35         1.2790   -4.2980   -0.3390 hn        1 MOL      0.177161
     87 H36        -1.2750   -5.1760   -1.3280 h1        1 MOL      0.076240
     88 H37        -0.9330   -3.8890   -3.5330 h1        1 MOL     -0.020298
     89 H38        -0.3110   -6.1310   -3.4010 ho        1 MOL      0.384997
     90 H39         1.7990   -3.5500   -2.5900 hc        1 MOL      0.012509
     91 H40         1.2330   -3.3100   -4.2630 hc        1 MOL      0.012509
     92 H41         0.6730   -2.2270   -3.0020 hc        1 MOL      0.012509
     93 N9         -2.2120   -2.5270   -1.2960 n         1 MOL     -0.489198
     94 C29        -2.7900   -1.2610   -0.8290 c3        1 MOL      0.007596
     95 C30        -4.1320   -1.4310   -0.0510 c         1 MOL      0.633153
     96 O16        -4.3300   -0.7620    0.9780 o         1 MOL     -0.527373
     97 C31        -2.8700   -0.3210   -2.0500 c3        1 MOL      0.059461
     98 C32        -1.7540   -0.3660   -3.0170 c3        1 MOL      0.039076
     99 C33        -3.1070    1.1420   -1.5130 c3        1 MOL     -0.109830
    100 C34        -2.0430    0.4280   -4.2910 c3        1 MOL     -0.342316
    101 H42        -2.8520   -3.2550   -1.5790 hn        1 MOL      0.239293
    102 H43        -2.1790   -0.7750   -0.0730 h1        1 MOL      0.089260
    103 H44        -3.7960   -0.5370   -2.5770 hc        1 MOL      0.014996
    104 H45        -1.6220   -1.3530   -3.4650 hc        1 MOL      0.049092
    105 H46        -0.8340   -0.0570   -2.5230 hc        1 MOL      0.049092
    106 H47        -4.1140    1.1990   -1.1110 hc        1 MOL      0.022958
    107 H48        -2.3430    1.4030   -0.7710 hc        1 MOL      0.022958
    108 H49        -3.0500    1.8790   -2.3110 hc        1 MOL      0.022958
    109 H50        -1.9410    1.4740   -3.9920 hc        1 MOL      0.083095
    110 H51        -1.1730    0.4230   -4.9540 hc        1 MOL      0.083095
    111 H52        -2.9650    0.2780   -4.8560 hc        1 MOL      0.083095
    112 N10        -5.0220   -2.3350   -0.4980 n         1 MOL     -0.556657
    113 C35        -6.3090   -2.6910    0.1910 c3        1 MOL      0.066895
    114 C36        -7.4690   -2.7980   -0.7920 c         1 MOL      0.538836
    115 O17        -7.2690   -3.2180   -1.9240 o         1 MOL     -0.540552
    116 C37        -6.1720   -4.0550    0.9320 c3        1 MOL      0.311565
    117 C38        -5.2550   -4.0200    2.1530 c3        1 MOL     -0.302026
    118 O18        -7.3680   -4.4350    1.4860 oh        1 MOL     -0.662712
    119 H53        -4.8080   -2.9580   -1.2590 hn        1 MOL      0.284710
    120 H54        -6.4470   -1.7910    0.7870 h1        1 MOL      0.105490
    121 H55        -5.8650   -4.8250    0.2230 h1        1 MOL      0.000854
    122 H56        -7.1620   -5.2670    1.9370 ho        1 MOL      0.420866
    123 H57        -4.2200   -4.2360    1.8900 hc        1 MOL      0.084510
    124 H58        -5.2390   -3.0140    2.5710 hc        1 MOL      0.084510
    125 H59        -5.5460   -4.8230    2.8310 hc        1 MOL      0.084510
    126 N11        -8.5790   -2.1830   -0.4680 n         1 MOL     -0.409247
    127 C39        -9.7220   -2.0910   -1.3360 c3        1 MOL     -0.026714
    128 C40       -10.3570   -0.7300   -1.3520 c         1 MOL      0.760178
    129 O19       -10.7330   -0.2480   -2.4090 o         1 MOL     -0.582388
    130 C41       -10.7480   -3.1640   -0.9340 c3        1 MOL      0.231410
    131 C42       -11.9630   -3.4140   -1.7990 c3        1 MOL     -0.262054
    132 O20       -11.1110   -2.9250    0.4080 oh        1 MOL     -0.660628
    133 H60        -8.6270   -1.7580    0.4490 hn        1 MOL      0.279817
    134 H61        -9.4440   -2.3490   -2.3550 h1        1 MOL      0.100608
    135 H62       -10.2190   -4.1160   -0.9060 h1        1 MOL      0.046936
    136 H63       -11.4890   -3.7490    0.7300 ho        1 MOL      0.421034
    137 H64       -11.7250   -3.9310   -2.7260 hc        1 MOL      0.070991
    138 H65       -12.7100   -4.0520   -1.3330 hc        1 MOL      0.070991
    139 H66       -12.4190   -2.4610   -2.0490 hc        1 MOL      0.070991
    140 N12       -10.4150   -0.0670   -0.1580 n         1 MOL     -0.732845
    141 C43       -10.6770    1.3740   -0.0090 c3        1 MOL      0.273224
    142 C44        -9.5110    2.0730    0.6490 c         1 MOL      0.552786
    143 O21        -8.9240    1.4980    1.5460 o         1 MOL     -0.529083
    144 C45       -12.0070    1.6790    0.6490 c3        1 MOL     -0.339960
    145 C46       -13.1350    1.3280   -0.3840 c3        1 MOL      0.176998
    146 C47       -14.4720    2.0510   -0.0880 c3        1 MOL     -0.194163
    147 C48       -15.0820    1.9120    1.3060 c3        1 MOL      0.051013
    148 N13       -15.6940    0.5090    1.5610 n4        1 MOL     -0.314237
    149 H67       -10.3800   -0.6680    0.6530 hn        1 MOL      0.364725
    150 H68       -10.7730    1.8590   -0.9790 h1        1 MOL      0.051394
    151 H69       -12.0440    2.7460    0.8730 hc        1 MOL      0.107661
    152 H70       -12.1010    1.1630    1.5980 hc        1 MOL      0.107661
    153 H71       -13.3290    0.2590   -0.4510 hc        1 MOL      0.008687
    154 H72       -12.9290    1.5640   -1.4280 hc        1 MOL      0.008687
    155 H73       -15.1430    1.6540   -0.8550 hc        1 MOL      0.079236
    156 H74       -14.3010    3.1190   -0.1940 hc        1 MOL      0.079236
    157 H75       -15.8630    2.6520    1.4900 hx        1 MOL      0.090639
    158 H76       -14.2980    2.0430    2.0560 hx        1 MOL      0.090639
    159 H77       -16.3000    0.1540    0.8350 hn        1 MOL      0.252101
    160 H78       -14.9670   -0.1820    1.7090 hn        1 MOL      0.252101
    161 H79       -16.3320    0.5540    2.3300 hn        1 MOL      0.252101
    162 N14        -9.2770    3.3320    0.2660 n         1 MOL     -0.662320
    163 C49        -8.4760    4.1700    1.1000 c3        1 MOL      0.300845
    164 C50        -6.9220    3.9520    0.9350 c         1 MOL      0.381614
    165 O22        -6.2290    4.1710    1.8780 o         1 MOL     -0.508800
    166 C51        -8.8070    5.6150    0.9990 c3        1 MOL     -0.009634
    167 C52        -8.2300    6.5410    1.9970 c3        1 MOL     -0.185345
    168 C53        -8.9170    7.9340    1.9810 c         1 MOL      0.702046
    169 O23        -8.6680    8.6160    0.9750 o         1 MOL     -0.655155
    170 O24        -9.6050    8.3640    2.9360 o         1 MOL     -0.655155
    171 H80        -9.7580    3.6610   -0.5570 hn        1 MOL      0.305111
    172 H81        -8.6070    3.9290    2.1540 h1        1 MOL      0.052235
    173 H82        -9.8650    5.6550    1.2470 hc        1 MOL      0.004835
    174 H83        -8.7080    6.0040   -0.0230 hc        1 MOL      0.004835
    175 H84        -7.1850    6.8140    1.8300 hc        1 MOL      0.047107
    176 H85        -8.2780    6.0490    2.9730 hc        1 MOL      0.047107
    177 N15        -6.3280    3.8500   -0.2820 n         1 MOL     -0.314283
    178 C54        -6.8590    4.4350   -1.5360 c3        1 MOL     -0.096110
    179 H86        -7.3720    3.6620   -2.1080 h1        1 MOL      0.067598
    180 H87        -7.5580    5.2350   -1.2960 h1        1 MOL      0.067598
    181 H88        -6.0350    4.8360   -2.1260 h1        1 MOL      0.067598
    182 H89        -5.3410    3.6590   -0.2820 hn        1 MOL      0.272639
    183 Ca1         7.0370    4.5620   -1.0670 Ca        1 MOL      1.712007
    184 O25         8.0020    3.5330   -3.3010 oh        1 MOL     -0.910493
    185 H90         7.9090    3.4150   -4.2480 ho        1 MOL      0.440437
    186 H91         8.6390    2.8700   -3.0390 ho        1 MOL      0.440437
@<TRIPOS>BOND
     1    1    2 1   
     2    1    4 1   
     3    1    5 1   
     4    1    6 1   
     5    2    3 2   
     6    2    7 1   
     7    7    8 1   
     8    7   15 1   
     9    8    9 1   
    10    8   11 1   
    11    8   16 1   
    12    9   10 2   
    13    9   19 1   
    14   11   12 1   
    15   11   17 1   
    16   11   18 1   
    17   12   13 1   
    18   12   14 1   
    19   19   20 1   
    20   19   28 1   
    21   20   21 1   
    22   20   23 1   
    23   20   29 1   
    24   21   22 2   
    25   21   41 1   
    26   23   24 1   
    27   23   30 1   
    28   23   31 1   
    29   24   25 1   
    30   24   32 1   
    31   24   33 1   
    32   25   26 1   
    33   25   34 1   
    34   25   35 1   
    35   26   27 1   
    36   26   36 1   
    37   26   37 1   
    38   27   38 1   
    39   27   39 1   
    40   27   40 1   
    41   41   42 1   
    42   41   49 1   
    43   42   43 1   
    44   42   45 1   
    45   42   50 1   
    46   43   44 2   
    47   43   53 1   
    48   45   46 1   
    49   45   51 1   
    50   45   52 1   
    51   46   47 1   
    52   46   48 1   
    53   53   54 1   
    54   53   57 1   
    55   54   55 1   
    56   54   58 1   
    57   54   59 1   
    58   55   56 2   
    59   55   60 1   
    60   60   61 1   
    61   60   68 1   
    62   61   62 1   
    63   61   64 1   
    64   61   69 1   
    65   62   63 2   
    66   62   72 1   
    67   64   65 1   
    68   64   70 1   
    69   64   71 1   
    70   65   66 1   
    71   65   67 1   
    72   72   73 1   
    73   72   76 1   
    74   73   74 1   
    75   73   77 1   
    76   73   78 1   
    77   74   75 2   
    78   74   79 1   
    79   79   80 1   
    80   79   86 1   
    81   80   81 1   
    82   80   83 1   
    83   80   87 1   
    84   81   82 2   
    85   81   93 1   
    86   83   84 1   
    87   83   85 1   
    88   83   88 1   
    89   84   90 1   
    90   84   91 1   
    91   84   92 1   
    92   85   89 1   
    93   93   94 1   
    94   93  101 1   
    95   94   95 1   
    96   94   97 1   
    97   94  102 1   
    98   95   96 2   
    99   95  112 1   
   100   97   98 1   
   101   97   99 1   
   102   97  103 1   
   103   98  100 1   
   104   98  104 1   
   105   98  105 1   
   106   99  106 1   
   107   99  107 1   
   108   99  108 1   
   109  100  109 1   
   110  100  110 1   
   111  100  111 1   
   112  112  113 1   
   113  112  119 1   
   114  113  114 1   
   115  113  116 1   
   116  113  120 1   
   117  114  115 2   
   118  114  126 1   
   119  116  117 1   
   120  116  118 1   
   121  116  121 1   
   122  117  123 1   
   123  117  124 1   
   124  117  125 1   
   125  118  122 1   
   126  126  127 1   
   127  126  133 1   
   128  127  128 1   
   129  127  130 1   
   130  127  134 1   
   131  128  129 2   
   132  128  140 1   
   133  130  131 1   
   134  130  132 1   
   135  130  135 1   
   136  131  137 1   
   137  131  138 1   
   138  131  139 1   
   139  132  136 1   
   140  140  141 1   
   141  140  149 1   
   142  141  142 1   
   143  141  144 1   
   144  141  150 1   
   145  142  143 2   
   146  142  162 1   
   147  144  145 1   
   148  144  151 1   
   149  144  152 1   
   150  145  146 1   
   151  145  153 1   
   152  145  154 1   
   153  146  147 1   
   154  146  155 1   
   155  146  156 1   
   156  147  148 1   
   157  147  157 1   
   158  147  158 1   
   159  148  159 1   
   160  148  160 1   
   161  148  161 1   
   162  162  163 1   
   163  162  171 1   
   164  163  164 1   
   165  163  166 1   
   166  163  172 1   
   167  164  165 2   
   168  164  177 1   
   169  166  167 1   
   170  166  173 1   
   171  166  174 1   
   172  167  168 1   
   173  167  175 1   
   174  167  176 1   
   175  168  169 1   
   176  168  170 1   
   177  177  178 1   
   178  177  182 1   
   179  178  179 1   
   180  178  180 1   
   181  178  181 1   
   182  184  185 1   
   183  184  186 1   
@<TRIPOS>SUBSTRUCTURE
     1 MOL         1 TEMP              0 ****  ****    0 ROOT
