@<TRIPOS>MOLECULE
MOL
  189   185     1     0     0
SMALL
resp


@<TRIPOS>ATOM
      1 C1          4.9420    4.4960   -3.1480 c3        1 MOL     -0.562277
      2 C2          5.6210    3.7440   -2.0350 c         1 MOL      0.759697
      3 O1          4.8880    3.3420   -1.0950 o         1 MOL     -0.489030
      4 H1          5.6490    4.6540   -3.9630 hc        1 MOL      0.140819
      5 H2          4.0920    3.9190   -3.5120 hc        1 MOL      0.140819
      6 H3          4.5950    5.4600   -2.7770 hc        1 MOL      0.140819
      7 N1          6.8930    3.3150   -2.1790 n         1 MOL     -0.539775
      8 C3          7.5910    2.1860   -1.5610 c3        1 MOL      0.125952
      9 C4          6.6440    0.9350   -1.3910 c         1 MOL      0.258363
     10 O2          6.2900    0.6390   -0.3040 o         1 MOL     -0.257808
     11 C5          8.2990    2.5700   -0.2100 c3        1 MOL     -0.064698
     12 C6          7.5040    3.4490    0.7190 c         1 MOL      0.700550
     13 O3          6.6770    2.9180    1.5160 o         1 MOL     -0.735287
     14 O4          7.5100    4.6860    0.5230 o         1 MOL     -0.735287
     15 H4          7.3890    3.6490   -2.9980 hn        1 MOL      0.286199
     16 H5          8.4300    1.9300   -2.2120 h1        1 MOL      0.043886
     17 H6          9.2560    3.0410   -0.3940 hc        1 MOL     -0.003252
     18 H7          8.4700    1.6600    0.3730 hc        1 MOL     -0.003252
     19 N2          6.1380    0.3960   -2.5190 n         1 MOL     -0.386487
     20 C7          5.3870   -0.8500   -2.6760 c3        1 MOL      0.209726
     21 C8          6.0620   -2.1300   -2.1750 c         1 MOL      0.306669
     22 O5          6.4380   -3.0140   -2.9570 o         1 MOL     -0.532252
     23 C9          3.9680   -0.7260   -2.1330 c3        1 MOL      0.263657
     24 C10         3.1060   -1.9490   -2.4180 c3        1 MOL     -0.027632
     25 C11         3.3290    0.5720   -2.6950 c3        1 MOL     -0.456663
     26 C12         3.1340   -2.2620   -3.9450 c3        1 MOL     -0.152463
     27 H8          6.4210    0.9120   -3.3560 hn        1 MOL      0.239861
     28 H9          5.3390   -0.9680   -3.7610 h1        1 MOL     -0.004348
     29 H10         4.0580   -0.5240   -1.0620 hc        1 MOL     -0.212191
     30 H11         2.0870   -1.6630   -2.1260 hc        1 MOL      0.031986
     31 H12         3.3850   -2.7420   -1.7350 hc        1 MOL      0.031986
     32 H13         3.3850    0.4490   -3.7740 hc        1 MOL      0.101479
     33 H14         2.2840    0.6970   -2.3890 hc        1 MOL      0.101479
     34 H15         3.9130    1.4110   -2.3320 hc        1 MOL      0.101479
     35 H16         2.5260   -3.1420   -4.1610 hc        1 MOL      0.026911
     36 H17         2.7480   -1.4560   -4.5710 hc        1 MOL      0.026911
     37 H18         4.1390   -2.6110   -4.2090 hc        1 MOL      0.026911
     38 N3          6.3250   -2.2160   -0.8690 n         1 MOL     -0.023535
     39 C13         7.0460   -3.3590   -0.2760 c3        1 MOL      0.032464
     40 C14         6.2670   -4.6440   -0.2680 c         1 MOL      0.625589
     41 O6          6.8890   -5.6060   -0.6800 o         1 MOL     -0.599182
     42 C15         7.5600   -2.9150    1.1470 c3        1 MOL     -0.315645
     43 C16         8.6050   -1.7480    1.0920 c         1 MOL      0.811081
     44 O7          9.5500   -1.8260    0.2560 o         1 MOL     -0.728341
     45 O8          8.5750   -0.9760    2.0360 o         1 MOL     -0.728341
     46 H19         6.1050   -1.4100   -0.3050 hn        1 MOL      0.003944
     47 H20         7.9740   -3.5440   -0.8260 h1        1 MOL      0.039529
     48 H21         8.0330   -3.7000    1.7270 hc        1 MOL      0.106994
     49 H22         6.6470   -2.5510    1.6190 hc        1 MOL      0.106994
     50 N4          4.9900   -4.9110    0.1140 n         1 MOL     -0.578612
     51 C17         3.9970   -4.0730    0.7070 c3        1 MOL      0.226391
     52 C18         4.1350   -3.9010    2.1850 c         1 MOL      0.455132
     53 O9          5.2430   -4.1810    2.7040 o         1 MOL     -0.520608
     54 H23         4.7050   -5.8650   -0.0480 hn        1 MOL      0.294535
     55 H24         2.9740   -4.3950    0.5320 h1        1 MOL     -0.002102
     56 H25         4.0600   -3.0710    0.2710 h1        1 MOL     -0.002102
     57 N5          3.1210   -3.2680    2.8800 n         1 MOL     -0.532443
     58 C19         1.9400   -2.4440    2.5040 c3        1 MOL      0.065031
     59 C20         2.1890   -1.2200    1.5560 c         1 MOL      0.137977
     60 O10         3.2680   -0.5980    1.3930 o         1 MOL     -0.220678
     61 C21         1.2970   -2.0360    3.8670 c3        1 MOL     -0.181743
     62 C22         2.3190   -1.3920    4.7880 c         1 MOL      0.681301
     63 O11         3.0710   -2.1260    5.4870 o         1 MOL     -0.667521
     64 O12         2.2620   -0.1070    4.9010 o         1 MOL     -0.667521
     65 H26         3.3610   -3.2520    3.8630 hn        1 MOL      0.312327
     66 H27         1.1460   -3.0810    2.1100 h1        1 MOL      0.065384
     67 H28         0.9230   -2.9420    4.3430 hc        1 MOL      0.047970
     68 H29         0.4080   -1.4590    3.6340 hc        1 MOL      0.047970
     69 N6          1.1140   -0.7210    0.9110 n         1 MOL     -0.000724
     70 C23        -0.2270   -1.2020    0.8180 c3        1 MOL      0.033538
     71 C24        -0.4660   -2.5310    0.1460 c         1 MOL      0.505209
     72 O13         0.3070   -3.1090   -0.6210 o         1 MOL     -0.495438
     73 H30         1.2910    0.2190    0.5850 hn        1 MOL      0.051098
     74 H31        -0.8790   -0.4640    0.3420 h1        1 MOL      0.036722
     75 H32        -0.6530   -1.2680    1.8190 h1        1 MOL      0.036722
     76 N7         -1.5770   -3.1880    0.5080 n         1 MOL     -0.386130
     77 C25        -2.1690   -4.4140   -0.1370 c3        1 MOL     -0.175184
     78 C26        -2.3250   -4.2390   -1.6400 c         1 MOL      0.540977
     79 O14        -2.2250   -5.1850   -2.3570 o         1 MOL     -0.531211
     80 C27        -3.5470   -4.6710    0.4750 c3        1 MOL      0.353035
     81 C28        -3.6000   -5.7770    1.5430 c3        1 MOL     -0.271880
     82 C29        -5.0750   -6.0060    1.9400 c         1 MOL      0.638471
     83 N8         -5.8630   -6.4060    0.9650 n         1 MOL     -0.740452
     84 O15        -5.4820   -5.7500    3.0550 o         1 MOL     -0.527032
     85 H33        -2.1030   -2.8240    1.2890 hn        1 MOL      0.225150
     86 H34        -1.5640   -5.2920    0.0640 h1        1 MOL      0.115284
     87 H35        -4.1320   -5.0160   -0.3770 hc        1 MOL     -0.047487
     88 H36        -4.0140   -3.7860    0.8930 hc        1 MOL     -0.047487
     89 H37        -3.0710   -5.4560    2.4350 hc        1 MOL      0.060224
     90 H38        -3.1800   -6.6950    1.1380 hc        1 MOL      0.060224
     91 H39        -5.4730   -6.4930    0.0460 hn        1 MOL      0.340810
     92 H40        -6.7420   -6.8330    1.2230 hn        1 MOL      0.340810
     93 N9         -2.7320   -3.0400   -2.0210 n         1 MOL     -0.190335
     94 C30        -3.1540   -2.7330   -3.3850 c3        1 MOL     -0.345433
     95 C31        -4.5540   -2.0640   -3.5520 c         1 MOL      0.661118
     96 O16        -5.1270   -2.1800   -4.6340 o         1 MOL     -0.575962
     97 C32        -2.1100   -1.8530   -4.1860 c3        1 MOL      0.295568
     98 C33        -0.8450   -2.6810   -4.3840 c3        1 MOL     -0.292177
     99 C34        -1.6660   -0.4970   -3.5940 c3        1 MOL     -0.292177
    100 H41        -2.7490   -2.2790   -1.3690 hn        1 MOL      0.180027
    101 H42        -3.2020   -3.6840   -3.9260 h1        1 MOL      0.148397
    102 H43        -2.4580   -1.6810   -5.1970 hc        1 MOL     -0.001192
    103 H44        -1.1440   -3.6250   -4.8220 hc        1 MOL      0.072697
    104 H45        -0.2610   -2.1910   -5.1600 hc        1 MOL      0.072697
    105 H46        -0.3830   -2.8210   -3.4090 hc        1 MOL      0.072697
    106 H47        -0.6970   -0.5190   -3.0870 hc        1 MOL      0.072697
    107 H48        -1.6440    0.2430   -4.4010 hc        1 MOL      0.072697
    108 H49        -2.4230   -0.1100   -2.9140 hc        1 MOL      0.072697
    109 N10        -5.0500   -1.3670   -2.5440 n         1 MOL     -0.594960
    110 C35        -6.4680   -0.8580   -2.5480 c3        1 MOL      0.222860
    111 C36        -6.7070    0.5200   -1.7930 c         1 MOL      0.413772
    112 O17        -7.5850    1.2200   -2.1440 o         1 MOL     -0.548841
    113 C37        -7.3350   -1.9810   -1.8130 c3        1 MOL     -0.419542
    114 C38        -6.7480   -2.7750   -0.5990 c         1 MOL      0.581750
    115 N11        -7.3360   -3.9330   -0.2540 n         1 MOL     -0.596456
    116 O18        -5.7740   -2.3330    0.0140 o         1 MOL     -0.511655
    117 H50        -4.5500   -1.2420   -1.6760 hn        1 MOL      0.349637
    118 H51        -6.8070   -0.7950   -3.5810 h1        1 MOL      0.097596
    119 H52        -7.7320   -2.6290   -2.6020 hc        1 MOL      0.122334
    120 H53        -8.2570   -1.5190   -1.4530 hc        1 MOL      0.122334
    121 H54        -8.1280   -4.1760   -0.8280 hn        1 MOL      0.297705
    122 H55        -7.0420   -4.5490    0.4880 hn        1 MOL      0.297705
    123 N12        -5.9300    0.9110   -0.8200 n         1 MOL     -0.296611
    124 C39        -6.1950    2.0830   -0.0170 c3        1 MOL      0.269208
    125 C40        -4.8950    2.8960    0.2730 c         1 MOL      0.311787
    126 O19        -3.8080    2.4220    0.2680 o         1 MOL     -0.380502
    127 C41        -6.9300    1.6280    1.2710 c3        1 MOL     -0.036552
    128 C42        -8.1570    0.8190    1.0820 ca        1 MOL      0.192979
    129 C43        -8.1950   -0.5220    1.4910 ca        1 MOL     -0.243651
    130 C44        -9.3100    1.4900    0.6690 ca        1 MOL     -0.243651
    131 C45        -9.4080   -1.2760    1.4740 ca        1 MOL     -0.180962
    132 C46       -10.5100    0.7160    0.6990 ca        1 MOL     -0.180962
    133 C47       -10.5820   -0.6040    1.0870 ca        1 MOL      0.245477
    134 O20       -11.8160   -1.2710    0.9990 oh        1 MOL     -0.494308
    135 H56        -5.1020    0.3610   -0.6840 hn        1 MOL      0.157340
    136 H57        -6.9310    2.7820   -0.4190 h1        1 MOL     -0.009808
    137 H58        -7.0850    2.5040    1.9100 hc        1 MOL      0.029034
    138 H59        -6.2170    1.0840    1.8760 hc        1 MOL      0.029034
    139 H60        -7.2900   -1.0660    1.7400 ha        1 MOL      0.162696
    140 H61        -9.2850    2.5100    0.2960 ha        1 MOL      0.162696
    141 H62        -9.4720   -2.3230    1.6970 ha        1 MOL      0.116822
    142 H63       -11.3990    1.1350    0.2610 ha        1 MOL      0.116822
    143 H64       -12.4990   -0.6410    0.7600 ho        1 MOL      0.340672
    144 N13        -5.0320    4.2130    0.5920 n         1 MOL     -0.530988
    145 C48        -4.0440    5.2370    1.1220 c3        1 MOL      0.073432
    146 C49        -2.5880    5.3690    0.4680 c         1 MOL      0.451823
    147 O21        -1.8800    6.3360    0.8320 o         1 MOL     -0.519847
    148 C50        -4.0150    5.2980    2.5880 c3        1 MOL     -0.104803
    149 C51        -3.4210    4.0640    3.2940 c3        1 MOL     -0.074869
    150 C52        -4.0000    3.9540    4.7050 c         1 MOL      0.608289
    151 O22        -4.9760    3.1230    4.8150 o         1 MOL     -0.711583
    152 O23        -3.5310    4.6560    5.6480 o         1 MOL     -0.711583
    153 H65        -5.9890    4.5150    0.6280 hn        1 MOL      0.322002
    154 H66        -4.5150    6.1810    0.8430 h1        1 MOL      0.029562
    155 H67        -5.0600    5.2890    2.9160 hc        1 MOL      0.055496
    156 H68        -3.5250    6.1680    3.0150 hc        1 MOL      0.055496
    157 H69        -2.3550    4.2590    3.4440 hc        1 MOL      0.037872
    158 H70        -3.3660    3.1500    2.6960 hc        1 MOL      0.037872
    159 N14        -2.1720    4.4960   -0.4800 n         1 MOL     -0.281432
    160 C53        -0.9590    4.6290   -1.3290 c3        1 MOL     -0.105393
    161 C54        -1.2360    5.3180   -2.7010 c         1 MOL      0.431932
    162 O24        -0.3960    5.4080   -3.6100 o         1 MOL     -0.542313
    163 C55        -0.4750    3.2320   -1.6140 c3        1 MOL      0.089683
    164 C56        -0.1030    2.3630   -0.3940 c3        1 MOL      0.037913
    165 C57         1.1500    2.8780    0.3410 c         1 MOL      0.579377
    166 O25         2.0810    2.0630    0.5320 o         1 MOL     -0.578553
    167 O26         1.3150    4.1170    0.5560 o         1 MOL     -0.578553
    168 H71        -2.6910    3.6290   -0.4450 hn        1 MOL      0.210872
    169 H72        -0.1720    5.1860   -0.8270 h1        1 MOL      0.162353
    170 H73         0.3880    3.1590   -2.2760 hc        1 MOL     -0.014631
    171 H74        -1.2510    2.6240   -2.0790 hc        1 MOL     -0.014631
    172 H75         0.0870    1.3340   -0.6720 hc        1 MOL     -0.046460
    173 H76        -0.9630    2.3300    0.2810 hc        1 MOL     -0.046460
    174 N15        -2.4320    5.7970   -2.8930 n         1 MOL     -0.190996
    175 C58        -2.8880    6.4370   -4.1600 c3        1 MOL     -0.153369
    176 H77        -3.2340    7.4500   -3.9510 h1        1 MOL      0.077474
    177 H78        -2.0600    6.4760   -4.8680 h1        1 MOL      0.077474
    178 H79        -3.7050    5.8560   -4.5880 h1        1 MOL      0.077474
    179 H80        -3.0320    5.7140   -2.0840 hn        1 MOL      0.166780
    180 Ca1         4.4860    1.7830    1.1150 Ca        1 MOL      1.673829
    181 O27         3.6370    4.2010    1.5490 oh        1 MOL     -0.955259
    182 H81         3.6170    4.3250    2.4990 ho        1 MOL      0.429746
    183 H82         2.7480    4.3730    1.2520 ho        1 MOL      0.429746
    184 O28         5.9880   -0.0520    2.6310 oh        1 MOL     -0.955259
    185 H83         6.8600   -0.3120    2.3170 ho        1 MOL      0.429746
    186 H84         5.9840   -0.2900    3.5550 ho        1 MOL      0.429746
    187 O29         3.3850    2.0510    3.6070 oh        1 MOL     -0.955259
    188 H85         3.3150    1.2010    4.0530 ho        1 MOL      0.429746
    189 H86         3.4730    2.6910    4.3140 ho        1 MOL      0.429746
@<TRIPOS>BOND
     1    1    2 1   
     2    1    4 1   
     3    1    5 1   
     4    1    6 1   
     5    2    3 2   
     6    2    7 1   
     7    7    8 1   
     8    7   15 1   
     9    8    9 1   
    10    8   11 1   
    11    8   16 1   
    12    9   10 2   
    13    9   19 1   
    14   11   12 1   
    15   11   17 1   
    16   11   18 1   
    17   12   13 1   
    18   12   14 1   
    19   19   20 1   
    20   19   27 1   
    21   20   21 1   
    22   20   23 1   
    23   20   28 1   
    24   21   22 2   
    25   21   38 1   
    26   23   24 1   
    27   23   25 1   
    28   23   29 1   
    29   24   26 1   
    30   24   30 1   
    31   24   31 1   
    32   25   32 1   
    33   25   33 1   
    34   25   34 1   
    35   26   35 1   
    36   26   36 1   
    37   26   37 1   
    38   38   39 1   
    39   38   46 1   
    40   39   40 1   
    41   39   42 1   
    42   39   47 1   
    43   40   41 2   
    44   40   50 1   
    45   42   43 1   
    46   42   48 1   
    47   42   49 1   
    48   43   44 1   
    49   43   45 1   
    50   50   51 1   
    51   50   54 1   
    52   51   52 1   
    53   51   55 1   
    54   51   56 1   
    55   52   53 2   
    56   52   57 1   
    57   57   58 1   
    58   57   65 1   
    59   58   59 1   
    60   58   61 1   
    61   58   66 1   
    62   59   60 2   
    63   59   69 1   
    64   61   62 1   
    65   61   67 1   
    66   61   68 1   
    67   62   63 1   
    68   62   64 1   
    69   69   70 1   
    70   69   73 1   
    71   70   71 1   
    72   70   74 1   
    73   70   75 1   
    74   71   72 2   
    75   71   76 1   
    76   76   77 1   
    77   76   85 1   
    78   77   78 1   
    79   77   80 1   
    80   77   86 1   
    81   78   79 2   
    82   78   93 1   
    83   80   81 1   
    84   80   87 1   
    85   80   88 1   
    86   81   82 1   
    87   81   89 1   
    88   81   90 1   
    89   82   83 1   
    90   82   84 2   
    91   83   91 1   
    92   83   92 1   
    93   93   94 1   
    94   93  100 1   
    95   94   95 1   
    96   94   97 1   
    97   94  101 1   
    98   95   96 2   
    99   95  109 1   
   100   97   98 1   
   101   97   99 1   
   102   97  102 1   
   103   98  103 1   
   104   98  104 1   
   105   98  105 1   
   106   99  106 1   
   107   99  107 1   
   108   99  108 1   
   109  109  110 1   
   110  109  117 1   
   111  110  111 1   
   112  110  113 1   
   113  110  118 1   
   114  111  112 2   
   115  111  123 1   
   116  113  114 1   
   117  113  119 1   
   118  113  120 1   
   119  114  115 1   
   120  114  116 2   
   121  115  121 1   
   122  115  122 1   
   123  123  124 1   
   124  123  135 1   
   125  124  125 1   
   126  124  127 1   
   127  124  136 1   
   128  125  126 2   
   129  125  144 1   
   130  127  128 1   
   131  127  137 1   
   132  127  138 1   
   133  128  129 ar  
   134  128  130 ar  
   135  129  131 ar  
   136  129  139 1   
   137  130  132 ar  
   138  130  140 1   
   139  131  133 ar  
   140  131  141 1   
   141  132  133 ar  
   142  132  142 1   
   143  133  134 1   
   144  134  143 1   
   145  144  145 1   
   146  144  153 1   
   147  145  146 1   
   148  145  148 1   
   149  145  154 1   
   150  146  147 2   
   151  146  159 1   
   152  148  149 1   
   153  148  155 1   
   154  148  156 1   
   155  149  150 1   
   156  149  157 1   
   157  149  158 1   
   158  150  151 1   
   159  150  152 1   
   160  159  160 1   
   161  159  168 1   
   162  160  161 1   
   163  160  163 1   
   164  160  169 1   
   165  161  162 2   
   166  161  174 1   
   167  163  164 1   
   168  163  170 1   
   169  163  171 1   
   170  164  165 1   
   171  164  172 1   
   172  164  173 1   
   173  165  166 1   
   174  165  167 1   
   175  174  175 1   
   176  174  179 1   
   177  175  176 1   
   178  175  177 1   
   179  175  178 1   
   180  181  182 1   
   181  181  183 1   
   182  184  185 1   
   183  184  186 1   
   184  187  188 1   
   185  187  189 1   
@<TRIPOS>SUBSTRUCTURE
     1 MOL         1 TEMP              0 ****  ****    0 ROOT
