@<TRIPOS>MOLECULE
MOL
  195   189     1     0     0
SMALL
resp


@<TRIPOS>ATOM
      1 C1          4.4560   -3.4740   -3.1100 c3        1 MOL     -0.180983
      2 C2          3.5000   -3.1550   -1.9030 c         1 MOL      0.761244
      3 O1          2.9020   -2.1210   -1.8460 o         1 MOL     -0.548226
      4 H1          4.6690   -2.5550   -3.6560 hc        1 MOL      0.031663
      5 H2          5.3880   -3.8980   -2.7350 hc        1 MOL      0.031663
      6 H3          3.9730   -4.1890   -3.7770 hc        1 MOL      0.031663
      7 N1          3.4330   -4.0850   -0.9250 n         1 MOL     -0.826674
      8 C3          2.5760   -3.9650    0.2580 c3        1 MOL      0.030642
      9 C4          1.0540   -3.8840   -0.0500 c         1 MOL      0.678587
     10 O2          0.1790   -3.3900    0.7200 o         1 MOL     -0.579678
     11 C5          3.1480   -2.9340    1.2910 c3        1 MOL     -0.181940
     12 C6          4.7180   -3.0450    1.3480 c         1 MOL      0.796351
     13 O3          5.4680   -2.2270    0.7150 o         1 MOL     -0.733105
     14 O4          5.2590   -3.9890    1.9080 o         1 MOL     -0.733105
     15 H4          3.8370   -4.9910   -1.0940 hn        1 MOL      0.377261
     16 H5          2.5700   -4.9170    0.7860 h1        1 MOL      0.097840
     17 H6          2.7490   -3.3330    2.2310 hc        1 MOL      0.061858
     18 H7          2.7860   -1.9330    1.0330 hc        1 MOL      0.061858
     19 N2          0.7170   -4.5000   -1.1360 n         1 MOL     -0.372860
     20 C7         -0.7100   -4.6700   -1.5370 c3        1 MOL     -0.206973
     21 C8         -1.3870   -5.7940   -0.7560 c         1 MOL      0.387155
     22 O5         -0.7790   -6.6630   -0.1850 o         1 MOL     -0.549624
     23 C9         -0.7990   -4.7720   -3.0600 c3        1 MOL      0.100795
     24 C10        -0.2130   -6.1330   -3.4560 c3        1 MOL      0.062322
     25 C11        -0.0530   -3.6880   -3.8540 c3        1 MOL     -0.216490
     26 C12        -0.7150   -6.4670   -4.8580 c3        1 MOL     -0.070154
     27 H8          1.3860   -4.9910   -1.7120 hn        1 MOL      0.251733
     28 H9         -1.1210   -3.7030   -1.2320 h1        1 MOL      0.108033
     29 H10        -1.8500   -4.7800   -3.3310 hc        1 MOL      0.060497
     30 H11        -0.5390   -7.0080   -2.8960 hc        1 MOL      0.009177
     31 H12         0.8720   -6.0710   -3.4180 hc        1 MOL      0.009177
     32 H13         0.9630   -3.9500   -4.1560 hc        1 MOL      0.060317
     33 H14        -0.6050   -3.4210   -4.7610 hc        1 MOL      0.060317
     34 H15         0.1060   -2.7120   -3.3860 hc        1 MOL      0.060317
     35 H16        -1.7980   -6.5150   -4.9000 hc        1 MOL     -0.000287
     36 H17        -0.2530   -5.7810   -5.5750 hc        1 MOL     -0.000287
     37 H18        -0.3440   -7.4310   -5.1780 hc        1 MOL     -0.000287
     38 N3         -2.7250   -5.8520   -0.6440 n         1 MOL     -0.179990
     39 C13        -3.7340   -4.8950   -1.1270 c3        1 MOL     -0.009824
     40 C14        -3.9500   -3.7430   -0.0510 c         1 MOL      0.603880
     41 O6         -4.4190   -2.6560   -0.4330 o         1 MOL     -0.545572
     42 C15        -5.0300   -5.6690   -1.4770 c3        1 MOL     -0.467043
     43 C16        -5.5460   -6.7050   -0.3810 c         1 MOL      0.831161
     44 O7         -5.0520   -6.6790    0.7670 o         1 MOL     -0.735391
     45 O8         -6.3210   -7.5840   -0.7820 o         1 MOL     -0.735391
     46 H19        -3.1520   -6.6090   -0.1290 hn        1 MOL      0.217130
     47 H20        -3.3940   -4.5310   -2.0920 h1        1 MOL      0.077553
     48 H21        -4.8480   -6.3310   -2.3200 hc        1 MOL      0.110022
     49 H22        -5.8730   -4.9830   -1.5840 hc        1 MOL      0.110022
     50 N4         -3.5720   -3.9610    1.2570 n         1 MOL     -0.394530
     51 C17        -3.5550   -2.8830    2.3050 c3        1 MOL     -0.037886
     52 C18        -4.9620   -2.1940    2.5370 c         1 MOL      0.522215
     53 O9         -5.9850   -2.9140    2.5790 o         1 MOL     -0.523041
     54 H23        -3.1170   -4.8420    1.4720 hn        1 MOL      0.319094
     55 H24        -2.7860   -2.1490    2.0960 h1        1 MOL      0.065657
     56 H25        -3.2120   -3.3350    3.2440 h1        1 MOL      0.065657
     57 N5         -4.9810   -0.8810    2.8740 n         1 MOL     -0.597119
     58 C19        -6.0620   -0.3840    3.7230 c3        1 MOL      0.262382
     59 C20        -7.3280   -0.1990    2.9480 c         1 MOL      0.299720
     60 O10        -8.3180    0.1800    3.6020 o         1 MOL     -0.510751
     61 C21        -5.5260    0.8930    4.4010 c3        1 MOL     -0.473880
     62 C22        -4.9980    1.9010    3.3650 c         1 MOL      0.745237
     63 O11        -4.4540    2.9630    3.8750 o         1 MOL     -0.709047
     64 O12        -5.0600    1.6950    2.1390 o         1 MOL     -0.709047
     65 H26        -4.1280   -0.3540    2.9570 hn        1 MOL      0.360242
     66 H27        -6.2850   -1.0770    4.5280 h1        1 MOL      0.049920
     67 H28        -4.8140    0.5980    5.1720 hc        1 MOL      0.110275
     68 H29        -6.4520    1.2640    4.8320 hc        1 MOL      0.110275
     69 N6         -7.3470   -0.3920    1.6040 n         1 MOL     -0.158494
     70 C23        -8.4400   -0.0030    0.6490 c3        1 MOL     -0.264845
     71 C24        -8.4470    1.4950    0.2160 c         1 MOL      0.489039
     72 O13        -9.1060    1.9160   -0.7430 o         1 MOL     -0.553207
     73 H30        -6.4600   -0.6220    1.1870 hn        1 MOL      0.243882
     74 H31        -9.3900   -0.1810    1.1420 h1        1 MOL      0.130174
     75 H32        -8.3480   -0.6370   -0.2270 h1        1 MOL      0.130174
     76 N7         -7.5970    2.3400    0.9020 n         1 MOL     -0.035621
     77 C25        -7.2950    3.6960    0.5090 c3        1 MOL     -0.301818
     78 C26        -6.6440    3.7940   -0.9110 c         1 MOL      0.633434
     79 O14        -6.8490    4.7810   -1.6360 o         1 MOL     -0.561961
     80 C27        -8.3960    4.6790    0.8680 c3        1 MOL      0.180777
     81 C28        -8.6490    4.9680    2.4230 c3        1 MOL     -0.228326
     82 C29        -9.1660    3.7910    3.2720 c         1 MOL      0.554848
     83 N8         -8.6440    3.5530    4.4810 n         1 MOL     -0.737657
     84 O15       -10.0730    3.0580    2.8970 o         1 MOL     -0.526691
     85 H33        -7.0660    2.0470    1.7160 hn        1 MOL      0.278278
     86 H34        -6.4900    4.0060    1.1740 h1        1 MOL      0.126882
     87 H35        -9.3900    4.3410    0.5650 hc        1 MOL     -0.003039
     88 H36        -8.2920    5.6610    0.3940 hc        1 MOL     -0.003039
     89 H37        -9.1820    5.9040    2.5420 hc        1 MOL      0.051131
     90 H38        -7.6360    5.1190    2.8100 hc        1 MOL      0.051131
     91 H39        -8.0650    4.2600    4.9170 hn        1 MOL      0.344739
     92 H40        -9.0170    2.8110    5.0520 hn        1 MOL      0.344739
     93 N9         -5.9590    2.7490   -1.3940 n         1 MOL     -0.555600
     94 C30        -5.4940    2.6620   -2.7680 c3        1 MOL      0.131669
     95 C31        -4.0070    2.5150   -2.8660 c         1 MOL      0.598921
     96 O16        -3.4010    3.0500   -3.8050 o         1 MOL     -0.590658
     97 C32        -6.2900    1.6310   -3.4630 c3        1 MOL      0.273114
     98 C33        -6.1380    1.5350   -5.0180 c3        1 MOL     -0.437099
     99 C34        -6.1680    0.2550   -2.8900 c3        1 MOL     -0.437099
    100 H41        -5.9190    1.9150   -0.8250 hn        1 MOL      0.205554
    101 H42        -5.6950    3.6130   -3.2540 h1        1 MOL      0.052588
    102 H43        -7.3130    1.9810   -3.3590 hc        1 MOL      0.033085
    103 H44        -5.1960    1.0940   -5.3540 hc        1 MOL      0.098778
    104 H45        -6.8630    0.8690   -5.4800 hc        1 MOL      0.098778
    105 H46        -6.3380    2.5240   -5.4310 hc        1 MOL      0.098778
    106 H47        -5.1350    0.0360   -2.6320 hc        1 MOL      0.098778
    107 H48        -6.8770   -0.0790   -2.1370 hc        1 MOL      0.098778
    108 H49        -6.5510   -0.4450   -3.6340 hc        1 MOL      0.098778
    109 N10        -3.3360    1.8670   -1.9270 n         1 MOL     -0.469998
    110 C35        -1.9960    1.2970   -2.0630 c3        1 MOL      0.180506
    111 C36        -1.0020    1.8410   -1.0150 c         1 MOL      0.653649
    112 O17        -1.4820    2.2240    0.0080 o         1 MOL     -0.532865
    113 C37        -2.0830   -0.2740   -2.0480 c3        1 MOL     -0.289090
    114 C38        -2.6480   -0.8850   -3.3160 c         1 MOL      0.690793
    115 N11        -3.5370   -1.7640   -3.0850 n         1 MOL     -0.649125
    116 O18        -2.2950   -0.6120   -4.4370 o         1 MOL     -0.593698
    117 H50        -3.7800    1.6360   -1.0540 hn        1 MOL      0.284421
    118 H51        -1.5700    1.5850   -3.0260 h1        1 MOL      0.044272
    119 H52        -2.5500   -0.6920   -1.1580 hc        1 MOL      0.077142
    120 H53        -1.0500   -0.5920   -1.8620 hc        1 MOL      0.077142
    121 H54        -3.8990   -1.9320   -2.1600 hn        1 MOL      0.292324
    122 H55        -3.8140   -2.3630   -3.8540 hn        1 MOL      0.292324
    123 N12         0.2660    1.9340   -1.3830 n         1 MOL     -0.587142
    124 C39         1.3080    2.2910   -0.4380 c3        1 MOL      0.052023
    125 C40         2.3840    3.1240   -1.1910 c         1 MOL      0.755957
    126 O19         2.7100    2.7660   -2.3180 o         1 MOL     -0.592606
    127 C41         1.9260    0.9970    0.2030 c3        1 MOL     -0.123242
    128 C42         2.8060    1.1440    1.4290 ca        1 MOL      0.024369
    129 C43         4.1820    0.8040    1.2780 ca        1 MOL     -0.128157
    130 C44         2.3810    1.6040    2.6740 ca        1 MOL     -0.128157
    131 C45         5.0900    1.0070    2.3430 ca        1 MOL     -0.333205
    132 C46         3.2160    1.7970    3.7860 ca        1 MOL     -0.333205
    133 C47         4.6140    1.5440    3.6100 ca        1 MOL      0.406101
    134 O20         5.4820    1.8180    4.6170 oh        1 MOL     -0.540046
    135 H56         0.5620    1.3880   -2.1740 hn        1 MOL      0.294089
    136 H57         0.9170    2.9000    0.3770 h1        1 MOL      0.071134
    137 H58         2.5220    0.4830   -0.5550 hc        1 MOL      0.086778
    138 H59         1.0670    0.3430    0.3520 hc        1 MOL      0.086778
    139 H60         4.5700    0.5010    0.3110 ha        1 MOL      0.140444
    140 H61         1.3150    1.7500    2.7760 ha        1 MOL      0.140444
    141 H62         6.1590    0.9790    2.1660 ha        1 MOL      0.179629
    142 H63         2.7780    2.2140    4.6810 ha        1 MOL      0.179629
    143 H64         6.3370    1.4480    4.3570 ho        1 MOL      0.371538
    144 N13         2.8550    4.1740   -0.5060 n         1 MOL     -0.769165
    145 C48         3.9890    5.0410   -0.8880 c3        1 MOL      0.241347
    146 C49         4.9570    5.1260    0.3360 c         1 MOL      0.510554
    147 O21         4.8660    6.0940    1.1030 o         1 MOL     -0.524032
    148 C50         3.3700    6.4330   -1.3920 c3        1 MOL      0.091971
    149 C51         4.3260    7.2140   -2.3720 c3        1 MOL     -0.282158
    150 C52         5.1570    8.3060   -1.6550 c         1 MOL      0.723202
    151 O22         6.3640    8.5800   -1.9650 o         1 MOL     -0.674936
    152 O23         4.5320    9.0150   -0.8510 o         1 MOL     -0.674936
    153 H65         2.5860    4.2650    0.4570 hn        1 MOL      0.344421
    154 H66         4.4400    4.5390   -1.7360 h1        1 MOL     -0.002511
    155 H67         3.0580    7.0560   -0.5560 hc        1 MOL      0.021591
    156 H68         2.4590    6.2180   -1.9400 hc        1 MOL      0.021591
    157 H69         3.6850    7.7050   -3.1050 hc        1 MOL      0.035479
    158 H70         4.9380    6.4740   -2.8870 hc        1 MOL      0.035479
    159 N14         5.9350    4.2550    0.5530 n         1 MOL     -0.464876
    160 C53         6.3120    3.0510   -0.2880 c3        1 MOL     -0.059928
    161 C54         6.6790    3.3980   -1.7540 c         1 MOL      0.603378
    162 O24         7.5380    4.2070   -1.9360 o         1 MOL     -0.544537
    163 C55         7.5050    2.3990    0.3770 c3        1 MOL     -0.028444
    164 C56         7.6610    0.9980   -0.0600 c3        1 MOL      0.013833
    165 C57         8.6560    0.1610    0.7590 c         1 MOL      0.530715
    166 O25         9.8240    0.3140    0.4500 o         1 MOL     -0.653917
    167 O26         8.2690   -0.5890    1.6460 o         1 MOL     -0.653917
    168 H71         6.5350    4.5020    1.3260 hn        1 MOL      0.300501
    169 H72         5.5450    2.2890   -0.3740 h1        1 MOL      0.028906
    170 H73         7.3870    2.3890    1.4620 hc        1 MOL      0.034878
    171 H74         8.3810    2.9800    0.1030 hc        1 MOL      0.034878
    172 H75         7.9410    1.0650   -1.1120 hc        1 MOL     -0.032594
    173 H76         6.6930    0.5180   -0.0880 hc        1 MOL     -0.032594
    174 N15         6.0890    2.7140   -2.7500 n         1 MOL     -0.159525
    175 C58         6.3780    2.6670   -4.1950 c3        1 MOL     -0.283937
    176 H77         6.2530    3.6610   -4.6230 h1        1 MOL      0.111966
    177 H78         7.4040    2.3320   -4.3490 h1        1 MOL      0.111966
    178 H79         5.6930    1.9730   -4.6810 h1        1 MOL      0.111966
    179 H80         5.4080    2.0480   -2.4210 hn        1 MOL      0.193251
    180 Ca1         7.6440   -3.0620    1.8960 Ca        1 MOL      1.732478
    181 O27        10.0420   -4.0220    1.0410 oh        1 MOL     -0.855428
    182 H81        10.1450   -4.8170    0.5140 ho        1 MOL      0.399045
    183 H82        10.8340   -3.5130    0.8720 ho        1 MOL      0.399045
    184 O28         6.1830   -1.5760    3.8080 oh        1 MOL     -0.855428
    185 H83         6.6390   -0.7440    3.9750 ho        1 MOL      0.399045
    186 H84         5.2620   -1.3730    3.9570 ho        1 MOL      0.399045
    187 O29         7.5570   -5.3740    3.3030 oh        1 MOL     -0.855428
    188 H85         6.9430   -5.5080    4.0290 ho        1 MOL      0.399045
    189 H86         8.2950   -5.9560    3.4850 ho        1 MOL      0.399045
    190 O30         9.7450   -2.4820    3.6140 oh        1 MOL     -0.855428
    191 H87        10.3200   -1.8110    3.2390 ho        1 MOL      0.399045
    192 H88        10.3330   -3.1410    3.9620 ho        1 MOL      0.399045
    193 O31         7.4470   -2.2620   -0.8150 oh        1 MOL     -0.855428
    194 H89         7.4660   -1.7890   -1.6460 ho        1 MOL      0.399045
    195 H90         6.5480   -2.1680   -0.5000 ho        1 MOL      0.399045
@<TRIPOS>BOND
     1    1    2 1   
     2    1    4 1   
     3    1    5 1   
     4    1    6 1   
     5    2    3 2   
     6    2    7 1   
     7    7    8 1   
     8    7   15 1   
     9    8    9 1   
    10    8   11 1   
    11    8   16 1   
    12    9   10 2   
    13    9   19 1   
    14   11   12 1   
    15   11   17 1   
    16   11   18 1   
    17   12   13 1   
    18   12   14 1   
    19   19   20 1   
    20   19   27 1   
    21   20   21 1   
    22   20   23 1   
    23   20   28 1   
    24   21   22 2   
    25   21   38 1   
    26   23   24 1   
    27   23   25 1   
    28   23   29 1   
    29   24   26 1   
    30   24   30 1   
    31   24   31 1   
    32   25   32 1   
    33   25   33 1   
    34   25   34 1   
    35   26   35 1   
    36   26   36 1   
    37   26   37 1   
    38   38   39 1   
    39   38   46 1   
    40   39   40 1   
    41   39   42 1   
    42   39   47 1   
    43   40   41 2   
    44   40   50 1   
    45   42   43 1   
    46   42   48 1   
    47   42   49 1   
    48   43   44 1   
    49   43   45 1   
    50   50   51 1   
    51   50   54 1   
    52   51   52 1   
    53   51   55 1   
    54   51   56 1   
    55   52   53 2   
    56   52   57 1   
    57   57   58 1   
    58   57   65 1   
    59   58   59 1   
    60   58   61 1   
    61   58   66 1   
    62   59   60 2   
    63   59   69 1   
    64   61   62 1   
    65   61   67 1   
    66   61   68 1   
    67   62   63 1   
    68   62   64 1   
    69   69   70 1   
    70   69   73 1   
    71   70   71 1   
    72   70   74 1   
    73   70   75 1   
    74   71   72 2   
    75   71   76 1   
    76   76   77 1   
    77   76   85 1   
    78   77   78 1   
    79   77   80 1   
    80   77   86 1   
    81   78   79 2   
    82   78   93 1   
    83   80   81 1   
    84   80   87 1   
    85   80   88 1   
    86   81   82 1   
    87   81   89 1   
    88   81   90 1   
    89   82   83 1   
    90   82   84 2   
    91   83   91 1   
    92   83   92 1   
    93   93   94 1   
    94   93  100 1   
    95   94   95 1   
    96   94   97 1   
    97   94  101 1   
    98   95   96 2   
    99   95  109 1   
   100   97   98 1   
   101   97   99 1   
   102   97  102 1   
   103   98  103 1   
   104   98  104 1   
   105   98  105 1   
   106   99  106 1   
   107   99  107 1   
   108   99  108 1   
   109  109  110 1   
   110  109  117 1   
   111  110  111 1   
   112  110  113 1   
   113  110  118 1   
   114  111  112 2   
   115  111  123 1   
   116  113  114 1   
   117  113  119 1   
   118  113  120 1   
   119  114  115 1   
   120  114  116 2   
   121  115  121 1   
   122  115  122 1   
   123  123  124 1   
   124  123  135 1   
   125  124  125 1   
   126  124  127 1   
   127  124  136 1   
   128  125  126 2   
   129  125  144 1   
   130  127  128 1   
   131  127  137 1   
   132  127  138 1   
   133  128  129 ar  
   134  128  130 ar  
   135  129  131 ar  
   136  129  139 1   
   137  130  132 ar  
   138  130  140 1   
   139  131  133 ar  
   140  131  141 1   
   141  132  133 ar  
   142  132  142 1   
   143  133  134 1   
   144  134  143 1   
   145  144  145 1   
   146  144  153 1   
   147  145  146 1   
   148  145  148 1   
   149  145  154 1   
   150  146  147 2   
   151  146  159 1   
   152  148  149 1   
   153  148  155 1   
   154  148  156 1   
   155  149  150 1   
   156  149  157 1   
   157  149  158 1   
   158  150  151 1   
   159  150  152 1   
   160  159  160 1   
   161  159  168 1   
   162  160  161 1   
   163  160  163 1   
   164  160  169 1   
   165  161  162 2   
   166  161  174 1   
   167  163  164 1   
   168  163  170 1   
   169  163  171 1   
   170  164  165 1   
   171  164  172 1   
   172  164  173 1   
   173  165  166 1   
   174  165  167 1   
   175  174  175 1   
   176  174  179 1   
   177  175  176 1   
   178  175  177 1   
   179  175  178 1   
   180  181  182 1   
   181  181  183 1   
   182  184  185 1   
   183  184  186 1   
   184  187  188 1   
   185  187  189 1   
   186  190  191 1   
   187  190  192 1   
   188  193  194 1   
   189  193  195 1   
@<TRIPOS>SUBSTRUCTURE
     1 MOL         1 TEMP              0 ****  ****    0 ROOT
