@<TRIPOS>MOLECULE
MOL
  181   177     1     0     0
SMALL
resp


@<TRIPOS>ATOM
      1 C1          1.1530    5.9550   -1.9270 c3        1 MOL     -0.405666
      2 C2          2.4920    6.1450   -1.2510 c         1 MOL      0.641927
      3 O1          2.5020    6.8050   -0.1900 o         1 MOL     -0.599288
      4 H1          1.3000    5.4850   -2.8990 hc        1 MOL      0.102641
      5 H2          0.5200    5.3190   -1.3090 hc        1 MOL      0.102641
      6 H3          0.6730    6.9240   -2.0610 hc        1 MOL      0.102641
      7 N1          3.6260    5.8050   -1.8620 n         1 MOL     -0.399444
      8 C3          4.9020    5.9290   -1.2060 c3        1 MOL     -0.036121
      9 C4          5.1880    4.6540   -0.4050 c         1 MOL      0.597443
     10 O2          5.4080    3.5760   -0.9650 o         1 MOL     -0.510622
     11 C5          5.9150    6.2090   -2.2950 c3        1 MOL     -0.195181
     12 C6          7.2660    6.3530   -1.6640 c         1 MOL      0.717942
     13 O3          7.9040    5.3250   -1.4730 o         1 MOL     -0.742224
     14 O4          7.7350    7.5050   -1.3500 o         1 MOL     -0.742224
     15 H4          3.5890    5.2140   -2.6780 hn        1 MOL      0.261137
     16 H5          4.8880    6.8030   -0.5640 h1        1 MOL      0.098013
     17 H6          5.7250    7.1320   -2.8340 hc        1 MOL      0.023082
     18 H7          5.8940    5.3140   -2.9220 hc        1 MOL      0.023082
     19 N2          5.1680    4.8170    0.9090 n         1 MOL     -0.538232
     20 C7          5.3610    3.7460    1.8930 c3        1 MOL      0.495815
     21 C8          4.0020    2.9570    2.1200 c         1 MOL      0.242039
     22 O5          2.9170    3.4060    1.7390 o         1 MOL     -0.469808
     23 C9          5.8620    4.3660    3.2580 c3        1 MOL     -0.384191
     24 H8          5.0390    5.7330    1.2990 hn        1 MOL      0.272259
     25 H9          6.1960    3.1480    1.5420 h1        1 MOL      0.024864
     26 H10         6.9300    4.5580    3.1140 hc        1 MOL      0.089519
     27 H11         5.3460    5.2980    3.4900 hc        1 MOL      0.089519
     28 H12         5.6680    3.6880    4.0910 hc        1 MOL      0.089519
     29 N3          3.9600    1.7330    2.7160 n         1 MOL     -0.102977
     30 C10         5.1210    0.8590    3.0000 c3        1 MOL     -0.252525
     31 C11         5.6740    0.0810    1.7980 c         1 MOL      0.510581
     32 O6          4.9670   -0.1240    0.8390 o         1 MOL     -0.461664
     33 C12         4.7360   -0.2530    4.0130 c3        1 MOL      0.011607
     34 C13         3.4920   -1.0840    3.5790 c         1 MOL      0.704924
     35 O7          3.6460   -2.3100    3.4220 o         1 MOL     -0.719636
     36 O8          2.3900   -0.5690    3.3350 o         1 MOL     -0.719636
     37 H13         3.0360    1.4140    2.9840 hn        1 MOL      0.182013
     38 H14         5.8600    1.4950    3.4980 h1        1 MOL      0.079513
     39 H15         4.5310    0.2420    4.9630 hc        1 MOL     -0.001225
     40 H16         5.6070   -0.8780    4.2030 hc        1 MOL     -0.001225
     41 N4          6.9020   -0.3730    1.8260 n         1 MOL     -0.375435
     42 C14         7.4970   -1.4300    0.9270 c3        1 MOL     -0.029570
     43 C15         7.8270   -0.8910   -0.4940 c         1 MOL      0.318259
     44 O9          8.2860    0.2570   -0.6900 o         1 MOL     -0.433823
     45 H17         7.4840    0.0520    2.5340 hn        1 MOL      0.268244
     46 H18         6.8260   -2.2900    0.8700 h1        1 MOL      0.089573
     47 H19         8.3700   -1.8120    1.4530 h1        1 MOL      0.089573
     48 N5          7.5100   -1.6850   -1.5300 n         1 MOL     -0.264408
     49 C16         6.7130   -2.9090   -1.5190 c3        1 MOL      0.043867
     50 C17         5.8260   -2.8630   -2.7450 c         1 MOL      0.609795
     51 O10         6.2320   -2.3960   -3.7590 o         1 MOL     -0.497179
     52 C18         7.6040   -4.1190   -1.4980 c3        1 MOL     -0.082314
     53 C19         8.5280   -4.2840   -0.3330 c         1 MOL      0.584551
     54 N6          9.6820   -3.6690   -0.4070 n         1 MOL     -0.724062
     55 O11         8.2070   -4.9810    0.6740 o         1 MOL     -0.564796
     56 H20         7.7830   -1.4150   -2.4650 hn        1 MOL      0.234736
     57 H21         5.9480   -2.8230   -0.7580 h1        1 MOL      0.011861
     58 H22         8.1900   -4.1290   -2.4200 hc        1 MOL      0.010753
     59 H23         6.9100   -4.9600   -1.5010 hc        1 MOL      0.010753
     60 H24         9.9710   -3.1100   -1.1960 hn        1 MOL      0.354148
     61 H25        10.2600   -3.7860    0.4140 hn        1 MOL      0.354148
     62 N7          4.6150   -3.4970   -2.5300 n         1 MOL     -0.439520
     63 C20         3.5450   -3.4580   -3.5620 c3        1 MOL     -0.329608
     64 C21         2.1870   -3.8440   -3.0340 c         1 MOL      0.702697
     65 O12         1.2650   -3.5810   -3.8020 o         1 MOL     -0.564615
     66 H26         4.5140   -3.9190   -1.6150 hn        1 MOL      0.288867
     67 H27         3.9430   -4.0280   -4.4010 h1        1 MOL      0.171884
     68 H28         3.3540   -2.4510   -3.9190 h1        1 MOL      0.171884
     69 N8          2.0050   -4.2840   -1.7760 n         1 MOL     -0.405579
     70 C22         0.7480   -4.8800   -1.4310 c3        1 MOL     -0.190872
     71 C23        -0.3810   -3.8650   -1.0960 c         1 MOL      0.799539
     72 O13        -0.1930   -2.9720   -0.2860 o         1 MOL     -0.598209
     73 C24         0.8750   -5.8780   -0.2440 c3        1 MOL      0.335232
     74 C25         1.4390   -7.1930   -0.6680 c3        1 MOL     -0.442676
     75 O14         1.6900   -5.4610    0.8190 oh        1 MOL     -0.607880
     76 H29         2.7690   -4.5070   -1.1430 hn        1 MOL      0.281338
     77 H30         0.3810   -5.5260   -2.2130 h1        1 MOL      0.092425
     78 H31        -0.0990   -6.1350    0.1710 h1        1 MOL      0.042593
     79 H32         1.5730   -6.1280    1.4930 ho        1 MOL      0.430072
     80 H33         2.4950   -6.9530   -0.8210 hc        1 MOL      0.108560
     81 H34         1.4710   -7.8510    0.1980 hc        1 MOL      0.108560
     82 H35         0.9980   -7.5530   -1.5960 hc        1 MOL      0.108560
     83 N9         -1.5380   -4.0840   -1.6160 n         1 MOL     -0.583867
     84 C26        -2.7150   -3.2060   -1.3310 c3        1 MOL     -0.210087
     85 C27        -3.2580   -3.3180    0.1020 c         1 MOL      0.722278
     86 O15        -3.4040   -4.4870    0.4320 o         1 MOL     -0.580784
     87 C28        -3.8280   -3.5300   -2.3780 c3        1 MOL      0.026095
     88 C29        -5.1450   -2.7540   -2.2480 c3        1 MOL      0.124231
     89 C30        -3.2430   -3.1880   -3.7310 c3        1 MOL     -0.100464
     90 C31        -6.2030   -2.8460   -3.3090 c3        1 MOL     -0.301673
     91 H36        -1.7430   -4.8530   -2.2350 hn        1 MOL      0.339136
     92 H37        -2.3750   -2.1830   -1.4850 h1        1 MOL      0.199101
     93 H38        -4.0260   -4.6050   -2.4280 hc        1 MOL      0.031994
     94 H39        -4.8100   -1.7250   -2.1380 hc        1 MOL     -0.006550
     95 H40        -5.5520   -3.1490   -1.3190 hc        1 MOL     -0.006550
     96 H41        -2.7500   -2.2220   -3.8360 hc        1 MOL      0.024661
     97 H42        -2.5010   -3.9730   -3.8880 hc        1 MOL      0.024661
     98 H43        -3.8920   -3.2900   -4.6040 hc        1 MOL      0.024661
     99 H44        -6.4840   -3.8590   -3.5730 hc        1 MOL      0.068975
    100 H45        -7.1550   -2.4870   -2.9330 hc        1 MOL      0.068975
    101 H46        -5.8360   -2.3040   -4.1900 hc        1 MOL      0.068975
    102 N10        -3.3690   -2.2600    0.9860 n         1 MOL     -0.822541
    103 C32        -4.0840   -2.4750    2.2430 c3        1 MOL      0.315018
    104 C33        -5.2780   -1.5280    2.4470 c         1 MOL      0.455353
    105 O16        -6.0440   -1.7050    3.3820 o         1 MOL     -0.577575
    106 C34        -3.0810   -2.3990    3.4360 c3        1 MOL      0.004377
    107 C35        -2.4970   -1.0670    3.6040 c         1 MOL      0.785138
    108 O17        -3.1960   -0.0950    3.8810 o         1 MOL     -0.768212
    109 O18        -1.2780   -0.8460    3.3300 o         1 MOL     -0.768212
    110 H47        -3.0760   -1.3550    0.6560 hn        1 MOL      0.505710
    111 H48        -4.5240   -3.4710    2.2660 h1        1 MOL      0.009492
    112 H49        -2.2520   -3.1080    3.3430 hc        1 MOL     -0.048429
    113 H50        -3.5580   -2.7520    4.3570 hc        1 MOL     -0.048429
    114 N11        -5.4750   -0.5640    1.5890 n         1 MOL     -0.434520
    115 C36        -6.8630    0.0430    1.3220 c3        1 MOL      0.273170
    116 C37        -6.6200    1.4350    0.7120 c         1 MOL      0.357553
    117 O19        -6.9950    1.6950   -0.4270 o         1 MOL     -0.508050
    118 C38        -7.6680   -0.9310    0.4470 c3        1 MOL     -0.260331
    119 C39        -9.1230   -0.5520    0.1370 ca        1 MOL      0.177038
    120 C40       -10.0480   -0.1600    1.1160 ca        1 MOL     -0.219621
    121 C41        -9.6670   -0.6830   -1.1640 ca        1 MOL     -0.219621
    122 C42       -11.4130    0.1260    0.7910 ca        1 MOL     -0.060408
    123 C43       -10.9510   -0.2260   -1.4720 ca        1 MOL     -0.060408
    124 C44       -11.8490    0.1520   -0.5340 ca        1 MOL     -0.166010
    125 H51        -4.7180   -0.3280    0.9570 hn        1 MOL      0.229367
    126 H52        -7.4050    0.1860    2.2580 h1        1 MOL      0.012843
    127 H53        -7.5760   -1.9260    0.8880 hc        1 MOL      0.098772
    128 H54        -7.1460   -0.9500   -0.5080 hc        1 MOL      0.098772
    129 H55        -9.8340   -0.2400    2.1670 ha        1 MOL      0.123174
    130 H56        -9.0370   -1.0390   -1.9690 ha        1 MOL      0.123174
    131 H57       -12.0720    0.3800    1.6080 ha        1 MOL      0.081650
    132 H58       -11.2950   -0.3980   -2.4830 ha        1 MOL      0.081650
    133 H59       -12.8470    0.4150   -0.8520 ha        1 MOL      0.107562
    134 N12        -5.8480    2.2900    1.4150 n         1 MOL     -0.032926
    135 C45        -5.6720    3.6230    0.9740 c3        1 MOL     -0.302397
    136 C46        -4.8020    3.8850   -0.2530 c         1 MOL      0.337958
    137 O20        -4.7620    5.0050   -0.7310 o         1 MOL     -0.473716
    138 C47        -4.9860    4.2940    2.1710 c3        1 MOL      0.069565
    139 C48        -5.6760    3.5850    3.3240 c3        1 MOL     -0.206343
    140 C49        -5.5920    2.1320    2.8150 c3        1 MOL     -0.057901
    141 H60        -6.6090    4.1920    0.9970 h1        1 MOL      0.171299
    142 H61        -3.9080    4.1490    2.1570 hc        1 MOL      0.046809
    143 H62        -5.2520    5.3490    2.0930 hc        1 MOL      0.046809
    144 H63        -5.1330    3.8650    4.2240 hc        1 MOL      0.055710
    145 H64        -6.7320    3.7960    3.4420 hc        1 MOL      0.055710
    146 H65        -4.5930    1.7010    2.7920 h1        1 MOL      0.140350
    147 H66        -6.2280    1.4730    3.3970 h1        1 MOL      0.140350
    148 N13        -4.1100    2.9100   -0.8520 n         1 MOL     -0.148248
    149 C50        -3.5350    2.9540   -2.2760 c3        1 MOL     -0.229095
    150 C51        -4.6610    3.3390   -3.2640 c         1 MOL      0.444006
    151 O21        -4.6170    4.3070   -4.0120 o         1 MOL     -0.520319
    152 C52        -2.9240    1.6450   -2.7060 c3        1 MOL      0.170938
    153 C53        -1.7330    1.2420   -1.8140 c3        1 MOL     -0.234677
    154 C54        -2.1560    0.3490   -0.6070 c         1 MOL      0.708978
    155 O22        -1.2870   -0.4000   -0.0520 o         1 MOL     -0.729298
    156 O23        -3.2760    0.2710   -0.1550 o         1 MOL     -0.729298
    157 H67        -4.0800    2.0650   -0.3140 hn        1 MOL      0.245514
    158 H68        -2.7900    3.7470   -2.2740 h1        1 MOL      0.123568
    159 H69        -2.4980    1.7280   -3.7000 hc        1 MOL     -0.026599
    160 H70        -3.7300    0.9190   -2.7700 hc        1 MOL     -0.026599
    161 H71        -1.2630    2.1480   -1.4290 hc        1 MOL      0.088546
    162 H72        -1.0570    0.6410   -2.4230 hc        1 MOL      0.088546
    163 N14        -5.7760    2.6760   -3.0510 n         1 MOL     -0.083250
    164 C55        -6.8500    2.8260   -4.0140 c3        1 MOL     -0.428687
    165 H73        -6.4900    2.5460   -5.0040 h1        1 MOL      0.136440
    166 H74        -7.6830    2.1810   -3.7350 h1        1 MOL      0.136440
    167 H75        -7.1830    3.8640   -4.0280 h1        1 MOL      0.136440
    168 H76        -5.7630    1.8420   -2.4820 hn        1 MOL      0.238976
    169 Ca1         0.4820   -1.0770    1.5630 Ca        1 MOL      1.697922
    170 O24         2.4680   -2.8300    1.2330 oh        1 MOL     -0.826661
    171 H77         2.8200   -2.8070    2.1300 ho        1 MOL      0.398894
    172 H78         2.3850   -3.7680    1.0330 ho        1 MOL      0.398894
    173 O25         2.0710   -0.0250   -0.3400 oh        1 MOL     -0.826661
    174 H79         2.6190    0.7650   -0.3230 ho        1 MOL      0.398894
    175 H80         2.6290   -0.6940   -0.7350 ho        1 MOL      0.398894
    176 O26         0.5640    1.6410    1.6360 oh        1 MOL     -0.826661
    177 H81        -0.3150    1.9040    1.8830 ho        1 MOL      0.398894
    178 H82         1.1120    2.4000    1.8200 ho        1 MOL      0.398894
    179 O27         0.3010   -3.3600    3.2660 oh        1 MOL     -0.826661
    180 H83         0.5470   -4.2220    3.6010 ho        1 MOL      0.398894
    181 H84        -0.1230   -2.9310    4.0050 ho        1 MOL      0.398894
@<TRIPOS>BOND
     1    1    2 1   
     2    1    4 1   
     3    1    5 1   
     4    1    6 1   
     5    2    3 2   
     6    2    7 1   
     7    7    8 1   
     8    7   15 1   
     9    8    9 1   
    10    8   11 1   
    11    8   16 1   
    12    9   10 2   
    13    9   19 1   
    14   11   12 1   
    15   11   17 1   
    16   11   18 1   
    17   12   13 1   
    18   12   14 1   
    19   19   20 1   
    20   19   24 1   
    21   20   21 1   
    22   20   23 1   
    23   20   25 1   
    24   21   22 2   
    25   21   29 1   
    26   23   26 1   
    27   23   27 1   
    28   23   28 1   
    29   29   30 1   
    30   29   37 1   
    31   30   31 1   
    32   30   33 1   
    33   30   38 1   
    34   31   32 2   
    35   31   41 1   
    36   33   34 1   
    37   33   39 1   
    38   33   40 1   
    39   34   35 1   
    40   34   36 1   
    41   41   42 1   
    42   41   45 1   
    43   42   43 1   
    44   42   46 1   
    45   42   47 1   
    46   43   44 2   
    47   43   48 1   
    48   48   49 1   
    49   48   56 1   
    50   49   50 1   
    51   49   52 1   
    52   49   57 1   
    53   50   51 2   
    54   50   62 1   
    55   52   53 1   
    56   52   58 1   
    57   52   59 1   
    58   53   54 1   
    59   53   55 2   
    60   54   60 1   
    61   54   61 1   
    62   62   63 1   
    63   62   66 1   
    64   63   64 1   
    65   63   67 1   
    66   63   68 1   
    67   64   65 2   
    68   64   69 1   
    69   69   70 1   
    70   69   76 1   
    71   70   71 1   
    72   70   73 1   
    73   70   77 1   
    74   71   72 2   
    75   71   83 1   
    76   73   74 1   
    77   73   75 1   
    78   73   78 1   
    79   74   80 1   
    80   74   81 1   
    81   74   82 1   
    82   75   79 1   
    83   83   84 1   
    84   83   91 1   
    85   84   85 1   
    86   84   87 1   
    87   84   92 1   
    88   85   86 2   
    89   85  102 1   
    90   87   88 1   
    91   87   89 1   
    92   87   93 1   
    93   88   90 1   
    94   88   94 1   
    95   88   95 1   
    96   89   96 1   
    97   89   97 1   
    98   89   98 1   
    99   90   99 1   
   100   90  100 1   
   101   90  101 1   
   102  102  103 1   
   103  102  110 1   
   104  103  104 1   
   105  103  106 1   
   106  103  111 1   
   107  104  105 2   
   108  104  114 1   
   109  106  107 1   
   110  106  112 1   
   111  106  113 1   
   112  107  108 1   
   113  107  109 1   
   114  114  115 1   
   115  114  125 1   
   116  115  116 1   
   117  115  118 1   
   118  115  126 1   
   119  116  117 2   
   120  116  134 1   
   121  118  119 1   
   122  118  127 1   
   123  118  128 1   
   124  119  120 ar  
   125  119  121 ar  
   126  120  122 ar  
   127  120  129 1   
   128  121  123 ar  
   129  121  130 1   
   130  122  124 ar  
   131  122  131 1   
   132  123  124 ar  
   133  123  132 1   
   134  124  133 1   
   135  134  135 1   
   136  134  140 1   
   137  135  136 1   
   138  135  138 1   
   139  135  141 1   
   140  136  137 2   
   141  136  148 1   
   142  138  139 1   
   143  138  142 1   
   144  138  143 1   
   145  139  140 1   
   146  139  144 1   
   147  139  145 1   
   148  140  146 1   
   149  140  147 1   
   150  148  149 1   
   151  148  157 1   
   152  149  150 1   
   153  149  152 1   
   154  149  158 1   
   155  150  151 2   
   156  150  163 1   
   157  152  153 1   
   158  152  159 1   
   159  152  160 1   
   160  153  154 1   
   161  153  161 1   
   162  153  162 1   
   163  154  155 1   
   164  154  156 1   
   165  163  164 1   
   166  163  168 1   
   167  164  165 1   
   168  164  166 1   
   169  164  167 1   
   170  170  171 1   
   171  170  172 1   
   172  173  174 1   
   173  173  175 1   
   174  176  177 1   
   175  176  178 1   
   176  179  180 1   
   177  179  181 1   
@<TRIPOS>SUBSTRUCTURE
     1 MOL         1 TEMP              0 ****  ****    0 ROOT
