@<TRIPOS>MOLECULE
MOL
  179   176     1     0     0
SMALL
resp


@<TRIPOS>ATOM
      1 C1          2.1730   -4.3690    6.0890 c3        1 MOL     -0.409094
      2 C2          2.0520   -4.4460    4.5740 c         1 MOL      0.724061
      3 O1          1.1010   -5.0330    4.0140 o         1 MOL     -0.584036
      4 H1          3.0670   -3.8050    6.3540 hc        1 MOL      0.109945
      5 H2          1.2950   -3.8710    6.4990 hc        1 MOL      0.109945
      6 H3          2.2450   -5.3760    6.4990 hc        1 MOL      0.109945
      7 N1          2.9690   -3.7570    3.9140 n         1 MOL     -0.555602
      8 C3          3.0390   -3.2680    2.5210 c3        1 MOL     -0.037108
      9 C4          3.3670   -4.4030    1.5300 c         1 MOL      0.522634
     10 O2          3.9380   -5.4590    1.8080 o         1 MOL     -0.494972
     11 C5          4.0550   -2.1050    2.5000 c3        1 MOL      0.262037
     12 C6          4.0250   -1.0870    1.3740 c         1 MOL     -0.037005
     13 O3          4.4140    0.0700    1.5360 o         1 MOL     -0.436417
     14 O4          3.6890   -1.4840    0.2590 o         1 MOL     -0.436417
     15 H4          3.6950   -3.3880    4.5050 hn        1 MOL      0.306884
     16 H5          2.1450   -2.7830    2.1350 h1        1 MOL      0.058914
     17 H6          5.0100   -2.6230    2.5610 hc        1 MOL     -0.011585
     18 H7          4.0210   -1.6580    3.4960 hc        1 MOL     -0.011585
     19 N2          2.8530   -4.2940    0.2700 n         1 MOL     -0.300520
     20 C7          3.2220   -5.1750   -0.8970 c3        1 MOL     -0.240388
     21 C8          4.5750   -4.8430   -1.4360 c         1 MOL      0.638493
     22 O5          5.1490   -5.7200   -2.0630 o         1 MOL     -0.563006
     23 C9          2.0740   -5.1830   -1.9600 c3        1 MOL      0.275556
     24 C10         0.7420   -5.6560   -1.4530 c3        1 MOL     -0.014438
     25 C11        -0.2440   -5.9110   -2.5960 c3        1 MOL     -0.062113
     26 C12        -1.7240   -5.9900   -2.1040 c3        1 MOL      0.118182
     27 N3         -2.6250   -6.5290   -3.1640 n4        1 MOL     -0.258429
     28 H8          2.2210   -3.5130    0.1880 hn        1 MOL      0.147151
     29 H9          3.2860   -6.1970   -0.5340 h1        1 MOL      0.135566
     30 H10         2.3680   -5.8500   -2.7730 hc        1 MOL     -0.051460
     31 H11         2.0160   -4.1960   -2.4430 hc        1 MOL     -0.051460
     32 H12         0.3250   -4.8530   -0.8430 hc        1 MOL      0.031068
     33 H13         0.8710   -6.5970   -0.9130 hc        1 MOL      0.031068
     34 H14         0.0740   -6.8330   -3.0920 hc        1 MOL      0.015771
     35 H15        -0.2170   -5.0710   -3.2940 hc        1 MOL      0.015771
     36 H16        -1.9840   -5.0190   -1.6830 hx        1 MOL      0.052884
     37 H17        -1.7610   -6.6420   -1.2340 hx        1 MOL      0.052884
     38 H18        -2.3990   -7.4560   -3.4900 hn        1 MOL      0.278853
     39 H19        -3.6120   -6.4510   -2.9690 hn        1 MOL      0.278853
     40 H20        -2.3940   -6.1000   -4.0510 hn        1 MOL      0.278853
     41 N4          4.9820   -3.5670   -1.3070 n         1 MOL     -0.358116
     42 C13         6.0960   -3.1060   -2.0830 c3        1 MOL      0.129045
     43 C14         7.0860   -2.2750   -1.2760 c         1 MOL      0.353295
     44 O6          8.2880   -2.3170   -1.5160 o         1 MOL     -0.517880
     45 C15         5.5860   -2.0860   -3.1590 c3        1 MOL     -0.195589
     46 C16         4.6030   -0.9420   -2.6750 c         1 MOL      0.746655
     47 O7          3.3810   -1.1020   -2.8430 o         1 MOL     -0.763804
     48 O8          5.0410    0.0770   -2.0470 o         1 MOL     -0.763804
     49 H21         4.3910   -2.9460   -0.7720 hn        1 MOL      0.171626
     50 H22         6.5860   -3.8940   -2.6440 h1        1 MOL      0.089008
     51 H23         5.0590   -2.6940   -3.8860 hc        1 MOL      0.056288
     52 H24         6.4530   -1.5790   -3.5950 hc        1 MOL      0.056288
     53 N5          6.6570   -1.6310   -0.1870 n         1 MOL     -0.044114
     54 C17         7.4780   -0.8890    0.7940 c3        1 MOL     -0.461006
     55 C18         7.4860    0.6270    0.6300 c         1 MOL      0.630188
     56 O9          8.0160    1.3390    1.4550 o         1 MOL     -0.593493
     57 H25         5.6580   -1.4620   -0.1690 hn        1 MOL      0.067210
     58 H26         8.5230   -1.1510    0.6840 h1        1 MOL      0.198009
     59 H27         7.0240   -1.1030    1.7640 h1        1 MOL      0.198009
     60 N6          6.8950    1.1240   -0.4030 n         1 MOL     -0.165344
     61 C19         6.8330    2.5510   -0.6930 c3        1 MOL     -0.003631
     62 C20         5.4550    3.1920   -0.3290 c         1 MOL      0.708114
     63 O10         4.4240    2.5260   -0.1390 o         1 MOL     -0.637153
     64 C21         7.2930    2.6810   -2.1730 c3        1 MOL     -0.347159
     65 C22         8.6480    2.2250   -2.4270 c         1 MOL      0.703265
     66 N7          8.8580    1.4620   -3.4980 n         1 MOL     -0.843288
     67 O11         9.6050    2.4690   -1.7010 o         1 MOL     -0.527880
     68 H28         6.1940    0.4970   -0.7680 hn        1 MOL      0.222452
     69 H29         7.5550    3.1770   -0.1740 h1        1 MOL      0.060797
     70 H30         7.3160    3.7590   -2.2860 hc        1 MOL      0.065329
     71 H31         6.5260    2.2280   -2.8060 hc        1 MOL      0.065329
     72 H32         8.0720    1.4090   -4.1300 hn        1 MOL      0.392624
     73 H33         9.7100    0.9230   -3.5700 hn        1 MOL      0.392624
     74 N8          5.4890    4.4980   -0.2880 n         1 MOL     -0.553985
     75 C23         4.2840    5.3720   -0.4270 c3        1 MOL      0.012655
     76 C24         3.2260    5.1430    0.5390 c         1 MOL      0.638608
     77 O12         3.5480    4.9300    1.6880 o         1 MOL     -0.481885
     78 H34         6.3790    4.9600   -0.4070 hn        1 MOL      0.370285
     79 H35         3.7640    5.1760   -1.3620 h1        1 MOL      0.052151
     80 H36         4.4550    6.4420   -0.4300 h1        1 MOL      0.052151
     81 N9          1.9440    5.3750    0.2160 n         1 MOL     -0.608808
     82 C25         0.7940    4.8090    0.9210 c3        1 MOL      0.013276
     83 C26         0.8930    3.3020    1.1880 c         1 MOL      0.776649
     84 O13         1.7140    2.6080    0.6150 o         1 MOL     -0.601031
     85 C27        -0.4450    5.0090    0.1000 c3        1 MOL     -0.290988
     86 C28        -0.7740    6.4520   -0.2440 ca        1 MOL      0.146715
     87 C29        -0.9970    7.3830    0.7890 ca        1 MOL     -0.133151
     88 C30        -0.8070    6.8080   -1.5740 ca        1 MOL     -0.133151
     89 C31        -1.2340    8.7170    0.3900 ca        1 MOL     -0.304139
     90 C32        -1.0450    8.1040   -1.9410 ca        1 MOL     -0.304139
     91 C33        -1.2650    9.0630   -0.9500 ca        1 MOL      0.382860
     92 O14        -1.4870   10.3710   -1.2850 oh        1 MOL     -0.475205
     93 H37         1.8310    5.7470   -0.7220 hn        1 MOL      0.316030
     94 H38         0.7600    5.3040    1.8950 h1        1 MOL      0.103562
     95 H39        -1.2420    4.7270    0.7780 hc        1 MOL      0.081776
     96 H40        -0.3860    4.3780   -0.7840 hc        1 MOL      0.081776
     97 H41        -0.9670    7.0310    1.8160 ha        1 MOL      0.127913
     98 H42        -0.5750    5.9760   -2.2270 ha        1 MOL      0.127913
     99 H43        -1.3480    9.5360    1.0780 ha        1 MOL      0.172344
    100 H44        -1.0840    8.4340   -2.9690 ha        1 MOL      0.172344
    101 H45        -1.6330   10.8540   -0.4660 ho        1 MOL      0.353015
    102 N10         0.1260    2.8260    2.1800 n         1 MOL     -0.678789
    103 C34         0.0090    1.4320    2.6880 c3        1 MOL      0.223417
    104 C35        -0.2190    0.4150    1.5010 c         1 MOL      0.205759
    105 O15         0.7830   -0.0120    0.9090 o         1 MOL     -0.382534
    106 C36         1.2120    1.1540    3.5880 c3        1 MOL     -0.016451
    107 C37         1.3090   -0.2680    4.1640 c3        1 MOL     -0.112482
    108 C38         1.2430    2.2010    4.7180 c3        1 MOL     -0.267379
    109 C39         0.3250   -0.6780    5.2570 c3        1 MOL     -0.358077
    110 H46        -0.3660    3.5410    2.7040 hn        1 MOL      0.331126
    111 H47        -0.8990    1.3620    3.2820 h1        1 MOL      0.062682
    112 H48         2.0450    1.3070    2.9100 hc        1 MOL      0.093052
    113 H49         2.2720   -0.4960    4.6180 hc        1 MOL      0.127935
    114 H50         1.1950   -0.9630    3.3210 hc        1 MOL      0.127935
    115 H51         0.3260    2.1390    5.3010 hc        1 MOL      0.083090
    116 H52         2.0980    2.0270    5.3690 hc        1 MOL      0.083090
    117 H53         1.4160    3.2250    4.3950 hc        1 MOL      0.083090
    118 H54         0.5360   -0.1940    6.2120 hc        1 MOL      0.095670
    119 H55        -0.7110   -0.5370    4.9290 hc        1 MOL      0.095670
    120 H56         0.3160   -1.7670    5.3420 hc        1 MOL      0.095670
    121 N11        -1.4020   -0.0780    1.2310 n         1 MOL     -0.169810
    122 C40        -1.7310   -0.9290    0.0640 c3        1 MOL     -0.224486
    123 C41        -3.1590   -1.2140   -0.2660 c         1 MOL      0.737979
    124 O16        -3.3330   -1.8220   -1.3110 o         1 MOL     -0.601645
    125 C42        -1.1050   -2.2860    0.2610 c3        1 MOL      0.374116
    126 O17        -1.7390   -3.0270    1.2610 oh        1 MOL     -0.630012
    127 H57        -2.1060    0.4270    1.7460 hn        1 MOL      0.200361
    128 H58        -1.2900   -0.4710   -0.8170 h1        1 MOL      0.088460
    129 H59        -0.0880   -2.1850    0.6380 h1        1 MOL     -0.067550
    130 H60        -0.9030   -2.8320   -0.6690 h1        1 MOL     -0.067550
    131 H61        -1.2050   -3.7720    1.5510 ho        1 MOL      0.420609
    132 N12        -4.1400   -0.6910    0.4460 n         1 MOL     -0.589268
    133 C43        -5.6140   -0.7900    0.0820 c3        1 MOL      0.123887
    134 C44        -5.8380    0.0090   -1.2610 c         1 MOL      0.590238
    135 O18        -5.1260    0.9460   -1.5830 o         1 MOL     -0.558573
    136 C45        -6.5400   -0.1840    1.2110 c3        1 MOL     -0.236875
    137 H62        -3.8220   -0.1390    1.2400 hn        1 MOL      0.332090
    138 H63        -5.8840   -1.8320   -0.1000 h1        1 MOL      0.070762
    139 H64        -6.1720    0.8140    1.4380 hc        1 MOL      0.082458
    140 H65        -7.5410   -0.1160    0.7990 hc        1 MOL      0.082458
    141 H66        -6.5570   -0.7630    2.1410 hc        1 MOL      0.082458
    142 N13        -6.9170   -0.3520   -2.0180 n         1 MOL     -0.553875
    143 C46        -7.9490   -1.3750   -1.7620 c3        1 MOL      0.271036
    144 C47        -9.2200   -0.5280   -2.0090 c         1 MOL      0.390615
    145 O19        -9.4200    0.0550   -3.0570 o         1 MOL     -0.540251
    146 C48        -7.8340   -2.6560   -2.6830 c3        1 MOL     -0.402714
    147 H67        -7.0360    0.1630   -2.8810 hn        1 MOL      0.315285
    148 H68        -7.8650   -1.6430   -0.7120 h1        1 MOL      0.020066
    149 H69        -8.1210   -2.3040   -3.6720 hc        1 MOL      0.112176
    150 H70        -6.8140   -3.0260   -2.7100 hc        1 MOL      0.112176
    151 H71        -8.5590   -3.4250   -2.4000 hc        1 MOL      0.112176
    152 N14       -10.2480   -0.5930   -1.1780 n         1 MOL     -0.220398
    153 C49       -10.3870   -1.2060    0.1720 c3        1 MOL     -0.203054
    154 C50       -10.0070   -0.2360    1.2890 c         1 MOL      0.580322
    155 O20        -9.4640   -0.7270    2.2960 o         1 MOL     -0.591284
    156 C51       -11.7780   -1.7760    0.3830 c3        1 MOL      0.006168
    157 C52       -12.8960   -0.7590    0.6230 c3        1 MOL     -0.014659
    158 C53       -13.1860    0.1550   -0.5620 c         1 MOL      0.597626
    159 O21       -12.3930    1.0550   -0.8720 o         1 MOL     -0.635023
    160 O22       -14.1540   -0.0800   -1.2800 o         1 MOL     -0.635023
    161 H72       -11.0480   -0.1240   -1.5810 hn        1 MOL      0.273303
    162 H73        -9.7310   -2.0700    0.1800 h1        1 MOL      0.071062
    163 H74       -11.7160   -2.4130    1.2650 hc        1 MOL      0.024982
    164 H75       -12.0970   -2.3800   -0.4690 hc        1 MOL      0.024982
    165 H76       -12.7050   -0.2060    1.5520 hc        1 MOL     -0.013978
    166 H77       -13.7660   -1.3550    0.8710 hc        1 MOL     -0.013978
    167 N15       -10.1260    1.0390    1.0190 n         1 MOL     -0.203070
    168 C54        -9.5460    2.1210    1.7840 c3        1 MOL     -0.159311
    169 H78        -8.5880    2.4010    1.3460 h1        1 MOL      0.078611
    170 H79       -10.2170    2.9800    1.7660 h1        1 MOL      0.078611
    171 H80        -9.3950    1.7980    2.8140 h1        1 MOL      0.078611
    172 H81       -10.5470    1.2100    0.1210 hn        1 MOL      0.183098
    173 Ca1         2.6630    0.5840   -0.8820 Ca        1 MOL      1.757957
    174 O23         0.3870    0.7140   -2.2640 oh        1 MOL     -0.905908
    175 H82        -0.3280    1.2870   -2.0060 ho        1 MOL      0.449468
    176 H83         0.0130    0.1460   -2.9340 ho        1 MOL      0.449468
    177 O24         1.3390   -1.9170   -1.5300 oh        1 MOL     -0.905908
    178 H84         0.5900   -2.2230   -2.0350 ho        1 MOL      0.449468
    179 H85         2.0850   -2.0240   -2.1270 ho        1 MOL      0.449468
@<TRIPOS>BOND
     1    1    2 1   
     2    1    4 1   
     3    1    5 1   
     4    1    6 1   
     5    2    3 2   
     6    2    7 1   
     7    7    8 1   
     8    7   15 1   
     9    8    9 1   
    10    8   11 1   
    11    8   16 1   
    12    9   10 2   
    13    9   19 1   
    14   11   12 1   
    15   11   17 1   
    16   11   18 1   
    17   12   13 1   
    18   12   14 1   
    19   19   20 1   
    20   19   28 1   
    21   20   21 1   
    22   20   23 1   
    23   20   29 1   
    24   21   22 2   
    25   21   41 1   
    26   23   24 1   
    27   23   30 1   
    28   23   31 1   
    29   24   25 1   
    30   24   32 1   
    31   24   33 1   
    32   25   26 1   
    33   25   34 1   
    34   25   35 1   
    35   26   27 1   
    36   26   36 1   
    37   26   37 1   
    38   27   38 1   
    39   27   39 1   
    40   27   40 1   
    41   41   42 1   
    42   41   49 1   
    43   42   43 1   
    44   42   45 1   
    45   42   50 1   
    46   43   44 2   
    47   43   53 1   
    48   45   46 1   
    49   45   51 1   
    50   45   52 1   
    51   46   47 1   
    52   46   48 1   
    53   53   54 1   
    54   53   57 1   
    55   54   55 1   
    56   54   58 1   
    57   54   59 1   
    58   55   56 2   
    59   55   60 1   
    60   60   61 1   
    61   60   68 1   
    62   61   62 1   
    63   61   64 1   
    64   61   69 1   
    65   62   63 2   
    66   62   74 1   
    67   64   65 1   
    68   64   70 1   
    69   64   71 1   
    70   65   66 1   
    71   65   67 2   
    72   66   72 1   
    73   66   73 1   
    74   74   75 1   
    75   74   78 1   
    76   75   76 1   
    77   75   79 1   
    78   75   80 1   
    79   76   77 2   
    80   76   81 1   
    81   81   82 1   
    82   81   93 1   
    83   82   83 1   
    84   82   85 1   
    85   82   94 1   
    86   83   84 2   
    87   83  102 1   
    88   85   86 1   
    89   85   95 1   
    90   85   96 1   
    91   86   87 ar  
    92   86   88 ar  
    93   87   89 ar  
    94   87   97 1   
    95   88   90 ar  
    96   88   98 1   
    97   89   91 ar  
    98   89   99 1   
    99   90   91 ar  
   100   90  100 1   
   101   91   92 1   
   102   92  101 1   
   103  102  103 1   
   104  102  110 1   
   105  103  104 1   
   106  103  106 1   
   107  103  111 1   
   108  104  105 2   
   109  104  121 1   
   110  106  107 1   
   111  106  108 1   
   112  106  112 1   
   113  107  109 1   
   114  107  113 1   
   115  107  114 1   
   116  108  115 1   
   117  108  116 1   
   118  108  117 1   
   119  109  118 1   
   120  109  119 1   
   121  109  120 1   
   122  121  122 1   
   123  121  127 1   
   124  122  123 1   
   125  122  125 1   
   126  122  128 1   
   127  123  124 2   
   128  123  132 1   
   129  125  126 1   
   130  125  129 1   
   131  125  130 1   
   132  126  131 1   
   133  132  133 1   
   134  132  137 1   
   135  133  134 1   
   136  133  136 1   
   137  133  138 1   
   138  134  135 2   
   139  134  142 1   
   140  136  139 1   
   141  136  140 1   
   142  136  141 1   
   143  142  143 1   
   144  142  147 1   
   145  143  144 1   
   146  143  146 1   
   147  143  148 1   
   148  144  145 2   
   149  144  152 1   
   150  146  149 1   
   151  146  150 1   
   152  146  151 1   
   153  152  153 1   
   154  152  161 1   
   155  153  154 1   
   156  153  156 1   
   157  153  162 1   
   158  154  155 2   
   159  154  167 1   
   160  156  157 1   
   161  156  163 1   
   162  156  164 1   
   163  157  158 1   
   164  157  165 1   
   165  157  166 1   
   166  158  159 1   
   167  158  160 1   
   168  167  168 1   
   169  167  172 1   
   170  168  169 1   
   171  168  170 1   
   172  168  171 1   
   173  174  175 1   
   174  174  176 1   
   175  177  178 1   
   176  177  179 1   
@<TRIPOS>SUBSTRUCTURE
     1 MOL         1 TEMP              0 ****  ****    0 ROOT
