@<TRIPOS>MOLECULE
MOL
  182   178     1     0     0
SMALL
resp


@<TRIPOS>ATOM
      1 C1          7.1640    2.3200    0.3950 c3        1 MOL     -0.323665
      2 C2          7.8360    0.9240    0.0160 c         1 MOL      0.797199
      3 O1          7.3370    0.2560   -0.8550 o         1 MOL     -0.521461
      4 H1          6.3740    2.1550    1.1280 hc        1 MOL      0.080989
      5 H2          7.9180    2.9850    0.8180 hc        1 MOL      0.080989
      6 H3          6.7390    2.7740   -0.5000 hc        1 MOL      0.080989
      7 N1          8.8350    0.4440    0.7800 n         1 MOL     -0.713019
      8 C3          9.5790   -0.8820    0.7060 c3        1 MOL      0.209473
      9 C4          8.5870   -2.1080    0.6880 c         1 MOL      0.497848
     10 O2          9.0290   -3.1500    0.2440 o         1 MOL     -0.533313
     11 C5         10.7010   -0.9900   -0.3120 c3        1 MOL     -0.339361
     12 C6         11.4050    0.3790   -0.5690 c         1 MOL      0.760357
     13 O3         11.4570    0.6700   -1.7980 o         1 MOL     -0.655970
     14 O4         11.9750    1.0580    0.2350 o         1 MOL     -0.655970
     15 H4          9.3430    1.0110    1.4500 hn        1 MOL      0.320930
     16 H5         10.0780   -1.0490    1.6610 h1        1 MOL      0.026427
     17 H6         10.3610   -1.4260   -1.2440 hc        1 MOL      0.093145
     18 H7         11.3600   -1.7010    0.1880 hc        1 MOL      0.093145
     19 N2          7.4100   -1.9140    1.2440 n         1 MOL     -0.465639
     20 C7          6.3770   -2.9380    1.1010 c3        1 MOL      0.159102
     21 C8          5.1810   -2.5060    0.2570 c         1 MOL      0.523685
     22 O5          4.3980   -3.3780   -0.0530 o         1 MOL     -0.538718
     23 C9          6.0580   -3.3760    2.5370 c3        1 MOL     -0.142837
     24 C10         7.1030   -4.3080    3.1380 c3        1 MOL     -0.094657
     25 C11         6.5010   -5.2020    4.2600 c3        1 MOL      0.247735
     26 C12         7.5420   -6.0340    4.9400 c3        1 MOL     -0.033018
     27 N3          7.0700   -6.4680    6.2600 n4        1 MOL     -0.143064
     28 H8          7.2080   -1.0620    1.7400 hn        1 MOL      0.245180
     29 H9          6.8310   -3.7590    0.5510 h1        1 MOL      0.104527
     30 H10         5.1210   -3.9210    2.4450 hc        1 MOL      0.039128
     31 H11         5.9360   -2.5410    3.2400 hc        1 MOL      0.039128
     32 H12         7.8370   -3.6630    3.6230 hc        1 MOL      0.032960
     33 H13         7.5430   -4.9460    2.3730 hc        1 MOL      0.032960
     34 H14         5.6640   -5.8440    3.9790 hc        1 MOL     -0.036904
     35 H15         6.0760   -4.5200    4.9970 hc        1 MOL     -0.036904
     36 H16         8.3580   -5.3310    5.1240 hx        1 MOL      0.068280
     37 H17         7.8470   -6.9370    4.4160 hx        1 MOL      0.068280
     38 H18         7.8340   -6.8720    6.7900 hn        1 MOL      0.210930
     39 H19         6.8870   -5.5970    6.7430 hn        1 MOL      0.210930
     40 H20         6.2160   -7.0140    6.2130 hn        1 MOL      0.210930
     41 N4          5.1190   -1.2770   -0.1610 n         1 MOL     -0.544365
     42 C13         4.0330   -0.7080   -1.0040 c3        1 MOL      0.306247
     43 C14         4.4600    0.5090   -1.9330 c         1 MOL      0.265448
     44 O6          4.4650    1.6940   -1.5370 o         1 MOL     -0.507033
     45 C15         2.8520   -0.2470   -0.0810 c3        1 MOL     -0.528551
     46 C16         1.6510    0.2240   -0.7830 c         1 MOL      1.080166
     47 O7          1.5980    0.5410   -2.0100 o         1 MOL     -0.863503
     48 O8          0.5870    0.3240   -0.1370 o         1 MOL     -0.863503
     49 H21         5.8510   -0.6050   -0.0190 hn        1 MOL      0.321673
     50 H22         3.6630   -1.4580   -1.6910 h1        1 MOL      0.084713
     51 H23         3.1010    0.4990    0.6830 hc        1 MOL      0.139728
     52 H24         2.5170   -1.2190    0.2820 hc        1 MOL      0.139728
     53 N5          4.6000    0.2140   -3.2410 n         1 MOL     -0.267288
     54 C17         4.9140    1.2580   -4.3090 c3        1 MOL     -0.291450
     55 C18         3.8040    2.2210   -4.6720 c         1 MOL      0.575985
     56 O9          3.9640    2.9550   -5.6450 o         1 MOL     -0.571674
     57 H25         4.4880   -0.7670   -3.4640 hn        1 MOL      0.273026
     58 H26         5.0880    0.7540   -5.2610 h1        1 MOL      0.161089
     59 H27         5.8410    1.7690   -4.0680 h1        1 MOL      0.161089
     60 N6          2.7960    2.3370   -3.8040 n         1 MOL     -0.178079
     61 C19         2.0370    3.5570   -3.8240 c3        1 MOL     -0.054504
     62 C20         1.5220    4.1010   -2.4860 c         1 MOL      0.468495
     63 O10         0.9790    5.1950   -2.5060 o         1 MOL     -0.518509
     64 C21         0.8480    3.4770   -4.8620 c3        1 MOL     -0.313325
     65 C22        -0.0540    2.3050   -4.5530 c         1 MOL      0.593479
     66 N7         -0.1510    1.3260   -5.4800 n         1 MOL     -0.726705
     67 O11        -0.6530    2.2870   -3.5180 o         1 MOL     -0.537775
     68 H28         2.7820    1.6950   -3.0280 hn        1 MOL      0.218370
     69 H29         2.6810    4.3920   -4.0810 h1        1 MOL      0.117935
     70 H30         1.3670    3.3620   -5.8220 hc        1 MOL      0.117301
     71 H31         0.3360    4.4290   -4.7950 hc        1 MOL      0.117301
     72 H32         0.3910    1.3220   -6.3250 hn        1 MOL      0.338762
     73 H33        -1.0390    0.8350   -5.5130 hn        1 MOL      0.338762
     74 N8          1.6890    3.3470   -1.3880 n         1 MOL     -0.267934
     75 C23         1.2500    3.6360   -0.0700 c3        1 MOL     -0.082193
     76 C24        -0.2440    3.6890    0.0930 c         1 MOL      0.513386
     77 O12        -1.0240    3.4530   -0.8270 o         1 MOL     -0.479690
     78 H34         1.8630    2.3640   -1.5660 hn        1 MOL      0.210747
     79 H35         1.7310    4.5470    0.2850 h1        1 MOL      0.078697
     80 H36         1.6000    2.7770    0.5000 h1        1 MOL      0.078697
     81 N9         -0.6550    3.9370    1.3260 n         1 MOL     -0.363090
     82 C25        -2.0360    3.7760    1.8010 c3        1 MOL      0.031375
     83 C26        -2.5640    2.3140    1.5900 c         1 MOL      0.541914
     84 O13        -1.9060    1.4560    1.0760 o         1 MOL     -0.513636
     85 C27        -2.0560    4.1240    3.2930 c3        1 MOL     -0.215244
     86 C28        -1.2460    5.3520    3.5330 ca        1 MOL     -0.034346
     87 C29        -1.8160    6.6520    3.2310 ca        1 MOL     -0.097132
     88 C30        -0.0450    5.2160    4.3210 ca        1 MOL     -0.097132
     89 C31        -1.2040    7.7940    3.6770 ca        1 MOL     -0.272526
     90 C32         0.5450    6.4040    4.6980 ca        1 MOL     -0.272526
     91 C33        -0.0410    7.7100    4.4370 ca        1 MOL      0.356963
     92 O14         0.3830    8.8520    5.0610 oh        1 MOL     -0.485929
     93 H37         0.0180    4.2710    2.0020 hn        1 MOL      0.254838
     94 H38        -2.6630    4.4210    1.1760 h1        1 MOL      0.065414
     95 H39        -1.6610    3.3050    3.8890 hc        1 MOL      0.102508
     96 H40        -3.0480    4.3490    3.6790 hc        1 MOL      0.102508
     97 H41        -2.8100    6.7330    2.8220 ha        1 MOL      0.125716
     98 H42         0.3560    4.2580    4.5780 ha        1 MOL      0.125716
     99 H43        -1.5920    8.7700    3.4200 ha        1 MOL      0.159591
    100 H44         1.4590    6.4640    5.2560 ha        1 MOL      0.159591
    101 H45        -0.2660    9.5470    4.9470 ho        1 MOL      0.368631
    102 N10        -3.7500    2.0420    2.1210 n         1 MOL     -0.407654
    103 C34        -4.3570    0.6970    2.2050 c3        1 MOL     -0.031991
    104 C35        -5.6150    0.5680    1.2790 c         1 MOL      0.593501
    105 O15        -5.5950   -0.4150    0.5150 o         1 MOL     -0.478776
    106 C36        -4.6140    0.4290    3.6790 c3        1 MOL      0.136665
    107 C37        -3.3910    0.6470    4.6590 c3        1 MOL      0.158725
    108 C38        -5.0700   -1.0190    3.8690 c3        1 MOL     -0.436386
    109 C39        -2.1380   -0.1290    4.3790 c3        1 MOL     -0.117501
    110 H46        -4.3310    2.8340    2.3520 hn        1 MOL      0.208070
    111 H47        -3.6130   -0.0480    1.9130 h1        1 MOL      0.089787
    112 H48        -5.3880    1.1090    4.0210 hc        1 MOL     -0.039127
    113 H49        -3.7310    0.4570    5.6800 hc        1 MOL     -0.044159
    114 H50        -3.1700    1.7110    4.5890 hc        1 MOL     -0.044159
    115 H51        -5.4200   -1.1870    4.8880 hc        1 MOL      0.119045
    116 H52        -5.8470   -1.3120    3.1640 hc        1 MOL      0.119045
    117 H53        -4.2640   -1.6720    3.5210 hc        1 MOL      0.119045
    118 H54        -2.2500   -1.1480    4.7460 hc        1 MOL      0.044226
    119 H55        -1.8770   -0.1780    3.3230 hc        1 MOL      0.044226
    120 H56        -1.3470    0.3820    4.9320 hc        1 MOL      0.044226
    121 N11        -6.5280    1.6000    1.2400 n         1 MOL     -0.621837
    122 C40        -7.5410    1.7190    0.1380 c3        1 MOL      0.020550
    123 C41        -8.1520    0.2380   -0.3080 c         1 MOL      0.422664
    124 O16        -8.3480    0.0810   -1.5140 o         1 MOL     -0.486036
    125 C42        -8.7240    2.5580    0.5270 c3        1 MOL      0.261227
    126 O17        -8.3240    3.8650    0.5540 oh        1 MOL     -0.619699
    127 H57        -6.4220    2.3430    1.9140 hn        1 MOL      0.399931
    128 H58        -7.1820    2.0420   -0.8370 h1        1 MOL      0.078862
    129 H59        -9.1730    2.2840    1.4810 h1        1 MOL      0.033135
    130 H60        -9.5240    2.5100   -0.2120 h1        1 MOL      0.033135
    131 H61        -8.3770    4.1890   -0.3450 ho        1 MOL      0.404795
    132 N12        -8.4370   -0.6390    0.6570 n         1 MOL     -0.549454
    133 C43        -8.9170   -2.0400    0.5290 c3        1 MOL      0.223312
    134 C44        -8.0620   -2.9350   -0.4370 c         1 MOL      0.290761
    135 O18        -8.5170   -4.1310   -0.7140 o         1 MOL     -0.547058
    136 C45       -10.3700   -2.0830    0.1310 c3        1 MOL     -0.330086
    137 H62        -8.2140   -0.3490    1.5990 hn        1 MOL      0.315850
    138 H63        -8.8120   -2.4600    1.5290 h1        1 MOL      0.074764
    139 H64       -10.4440   -1.6680   -0.8710 hc        1 MOL      0.109861
    140 H65       -10.8170   -3.0700    0.0730 hc        1 MOL      0.109861
    141 H66       -11.0310   -1.5150    0.7880 hc        1 MOL      0.109861
    142 N13        -6.9710   -2.5480   -1.0160 n         1 MOL     -0.135287
    143 C46        -6.0670   -3.3460   -1.9350 c3        1 MOL      0.293236
    144 C47        -4.9590   -4.0580   -1.0560 c         1 MOL      0.319049
    145 O19        -4.6130   -3.5950    0.0210 o         1 MOL     -0.466024
    146 C48        -5.4980   -2.4200   -3.0370 c3        1 MOL     -0.354409
    147 H67        -6.5840   -1.6610   -0.7300 hn        1 MOL      0.148724
    148 H68        -6.6650   -4.0980   -2.4610 h1        1 MOL      0.025542
    149 H69        -6.3450   -2.0470   -3.6090 hc        1 MOL      0.096199
    150 H70        -4.9970   -1.5570   -2.5920 hc        1 MOL      0.096199
    151 H71        -4.8140   -2.9970   -3.6610 hc        1 MOL      0.096199
    152 N14        -4.3770   -5.0550   -1.6500 n         1 MOL     -0.705745
    153 C49        -3.1740   -5.7880   -1.1600 c3        1 MOL      0.002065
    154 C50        -3.3140   -6.5330    0.2270 c         1 MOL      0.516549
    155 O20        -2.4170   -7.1880    0.6620 o         1 MOL     -0.502200
    156 C51        -1.8630   -4.9640   -1.3070 c3        1 MOL      0.025137
    157 C52        -1.8040   -3.8750   -2.3480 c3        1 MOL      0.010879
    158 C53        -0.6140   -2.9770   -2.2700 c         1 MOL      0.517889
    159 O21        -0.8340   -1.7470   -2.1820 o         1 MOL     -0.632072
    160 O22         0.5780   -3.4400   -2.2820 o         1 MOL     -0.632072
    161 H72        -4.6960   -5.1950   -2.5990 hn        1 MOL      0.407535
    162 H73        -3.2040   -6.6090   -1.8690 h1        1 MOL      0.101264
    163 H74        -1.0910   -5.6890   -1.5610 hc        1 MOL      0.040833
    164 H75        -1.5550   -4.5810   -0.3320 hc        1 MOL      0.040833
    165 H76        -2.6480   -3.2010   -2.2100 hc        1 MOL     -0.017200
    166 H77        -1.8860   -4.1900   -3.3910 hc        1 MOL     -0.017200
    167 N15        -4.5410   -6.5030    0.8310 n         1 MOL     -0.369938
    168 C54        -4.8120   -7.0330    2.1630 c3        1 MOL     -0.076611
    169 H78        -5.8410   -7.3880    2.2100 h1        1 MOL      0.070192
    170 H79        -4.1320   -7.8600    2.3710 h1        1 MOL      0.070192
    171 H80        -4.6640   -6.2470    2.9040 h1        1 MOL      0.070192
    172 H81        -5.2190   -5.9180    0.3640 hn        1 MOL      0.319647
    173 Ca1        -1.4710    0.7570   -1.5870 Ca        1 MOL      1.734579
    174 O23        -2.6590   -0.1340   -4.0300 oh        1 MOL     -0.850466
    175 H82        -3.4370   -0.0110   -4.5860 ho        1 MOL      0.416220
    176 H83        -2.0890   -0.7030   -4.5340 ho        1 MOL      0.416220
    177 O24        -3.7300    2.1820   -1.6050 oh        1 MOL     -0.850466
    178 H84        -4.2190    2.8580   -1.1400 ho        1 MOL      0.416220
    179 H85        -4.4120    1.6390   -2.0100 ho        1 MOL      0.416220
    180 O25        -3.3120   -0.8830   -0.7310 oh        1 MOL     -0.850466
    181 H86        -4.1510   -0.8760   -0.2870 ho        1 MOL      0.416220
    182 H87        -3.1450   -1.7960   -0.9450 ho        1 MOL      0.416220
@<TRIPOS>BOND
     1    1    2 1   
     2    1    4 1   
     3    1    5 1   
     4    1    6 1   
     5    2    3 2   
     6    2    7 1   
     7    7    8 1   
     8    7   15 1   
     9    8    9 1   
    10    8   11 1   
    11    8   16 1   
    12    9   10 2   
    13    9   19 1   
    14   11   12 1   
    15   11   17 1   
    16   11   18 1   
    17   12   13 1   
    18   12   14 1   
    19   19   20 1   
    20   19   28 1   
    21   20   21 1   
    22   20   23 1   
    23   20   29 1   
    24   21   22 2   
    25   21   41 1   
    26   23   24 1   
    27   23   30 1   
    28   23   31 1   
    29   24   25 1   
    30   24   32 1   
    31   24   33 1   
    32   25   26 1   
    33   25   34 1   
    34   25   35 1   
    35   26   27 1   
    36   26   36 1   
    37   26   37 1   
    38   27   38 1   
    39   27   39 1   
    40   27   40 1   
    41   41   42 1   
    42   41   49 1   
    43   42   43 1   
    44   42   45 1   
    45   42   50 1   
    46   43   44 2   
    47   43   53 1   
    48   45   46 1   
    49   45   51 1   
    50   45   52 1   
    51   46   47 1   
    52   46   48 1   
    53   53   54 1   
    54   53   57 1   
    55   54   55 1   
    56   54   58 1   
    57   54   59 1   
    58   55   56 2   
    59   55   60 1   
    60   60   61 1   
    61   60   68 1   
    62   61   62 1   
    63   61   64 1   
    64   61   69 1   
    65   62   63 2   
    66   62   74 1   
    67   64   65 1   
    68   64   70 1   
    69   64   71 1   
    70   65   66 1   
    71   65   67 2   
    72   66   72 1   
    73   66   73 1   
    74   74   75 1   
    75   74   78 1   
    76   75   76 1   
    77   75   79 1   
    78   75   80 1   
    79   76   77 2   
    80   76   81 1   
    81   81   82 1   
    82   81   93 1   
    83   82   83 1   
    84   82   85 1   
    85   82   94 1   
    86   83   84 2   
    87   83  102 1   
    88   85   86 1   
    89   85   95 1   
    90   85   96 1   
    91   86   87 ar  
    92   86   88 ar  
    93   87   89 ar  
    94   87   97 1   
    95   88   90 ar  
    96   88   98 1   
    97   89   91 ar  
    98   89   99 1   
    99   90   91 ar  
   100   90  100 1   
   101   91   92 1   
   102   92  101 1   
   103  102  103 1   
   104  102  110 1   
   105  103  104 1   
   106  103  106 1   
   107  103  111 1   
   108  104  105 2   
   109  104  121 1   
   110  106  107 1   
   111  106  108 1   
   112  106  112 1   
   113  107  109 1   
   114  107  113 1   
   115  107  114 1   
   116  108  115 1   
   117  108  116 1   
   118  108  117 1   
   119  109  118 1   
   120  109  119 1   
   121  109  120 1   
   122  121  122 1   
   123  121  127 1   
   124  122  123 1   
   125  122  125 1   
   126  122  128 1   
   127  123  124 2   
   128  123  132 1   
   129  125  126 1   
   130  125  129 1   
   131  125  130 1   
   132  126  131 1   
   133  132  133 1   
   134  132  137 1   
   135  133  134 1   
   136  133  136 1   
   137  133  138 1   
   138  134  135 2   
   139  134  142 1   
   140  136  139 1   
   141  136  140 1   
   142  136  141 1   
   143  142  143 1   
   144  142  147 1   
   145  143  144 1   
   146  143  146 1   
   147  143  148 1   
   148  144  145 2   
   149  144  152 1   
   150  146  149 1   
   151  146  150 1   
   152  146  151 1   
   153  152  153 1   
   154  152  161 1   
   155  153  154 1   
   156  153  156 1   
   157  153  162 1   
   158  154  155 2   
   159  154  167 1   
   160  156  157 1   
   161  156  163 1   
   162  156  164 1   
   163  157  158 1   
   164  157  165 1   
   165  157  166 1   
   166  158  159 1   
   167  158  160 1   
   168  167  168 1   
   169  167  172 1   
   170  168  169 1   
   171  168  170 1   
   172  168  171 1   
   173  174  175 1   
   174  174  176 1   
   175  177  178 1   
   176  177  179 1   
   177  180  181 1   
   178  180  182 1   
@<TRIPOS>SUBSTRUCTURE
     1 MOL         1 TEMP              0 ****  ****    0 ROOT
