@<TRIPOS>MOLECULE
MOL
  188   182     1     0     0
SMALL
resp


@<TRIPOS>ATOM
      1 C1         -8.2960    6.4790    0.5420 c3        1 MOL     -0.310290
      2 C2         -8.7070    5.2540   -0.3380 c         1 MOL      0.699495
      3 O1         -8.7450    5.3130   -1.5790 o         1 MOL     -0.578831
      4 H1         -8.6500    6.3290    1.5610 hc        1 MOL      0.075093
      5 H2         -7.2100    6.5770    0.5460 hc        1 MOL      0.075093
      6 H3         -8.7400    7.3860    0.1320 hc        1 MOL      0.075093
      7 N1         -8.9620    4.0940    0.2940 n         1 MOL     -0.709500
      8 C3         -9.5820    2.9070   -0.3300 c3        1 MOL      0.434047
      9 C4         -8.7110    1.5960   -0.2250 c         1 MOL      0.651006
     10 O2         -7.7090    1.6210    0.4510 o         1 MOL     -0.604791
     11 C5        -10.9660    2.8440    0.3930 c3        1 MOL     -0.233784
     12 C6        -11.8630    1.8650   -0.2460 c         1 MOL      0.823062
     13 O3        -11.7960    1.6540   -1.4710 o         1 MOL     -0.743199
     14 O4        -12.7370    1.3510    0.5390 o         1 MOL     -0.743199
     15 H4         -8.7840    4.1410    1.2860 hn        1 MOL      0.324404
     16 H5         -9.7570    3.0640   -1.3940 h1        1 MOL     -0.009176
     17 H6        -11.4230    3.8300    0.3240 hc        1 MOL      0.012850
     18 H7        -10.7650    2.4610    1.3980 hc        1 MOL      0.012850
     19 N2         -9.1010    0.5960   -0.9500 n         1 MOL     -0.679403
     20 C7         -8.5010   -0.7250   -0.9380 c3        1 MOL      0.062862
     21 C8         -7.0920   -0.5900   -1.7430 c         1 MOL      0.789723
     22 O5         -7.1100    0.0450   -2.7910 o         1 MOL     -0.571980
     23 C9         -9.5100   -1.7770   -1.4590 c3        1 MOL     -0.454929
     24 C10       -10.5330   -1.9080   -0.3570 c3        1 MOL      0.362212
     25 C11       -11.5370   -3.0030   -0.7140 c3        1 MOL     -0.141788
     26 C12       -12.8330   -2.9170    0.1110 c3        1 MOL      0.189712
     27 N3        -13.8610   -3.7560   -0.5150 n4        1 MOL     -0.290216
     28 H8         -9.9550    0.7520   -1.4660 hn        1 MOL      0.362578
     29 H9         -8.1100   -0.8340    0.0720 h1        1 MOL      0.057650
     30 H10        -8.9420   -2.6780   -1.7130 hc        1 MOL      0.150475
     31 H11        -9.9500   -1.3500   -2.3550 hc        1 MOL      0.150475
     32 H12       -11.1230   -0.9990   -0.3000 hc        1 MOL     -0.056078
     33 H13       -10.0750   -2.1630    0.6040 hc        1 MOL     -0.056078
     34 H14       -11.0550   -3.9580   -0.5060 hc        1 MOL      0.020518
     35 H15       -11.7520   -2.8480   -1.7670 hc        1 MOL      0.020518
     36 H16       -13.1480   -1.8700    0.0650 hx        1 MOL      0.040469
     37 H17       -12.6470   -3.1390    1.1690 hx        1 MOL      0.040469
     38 H18       -13.9860   -3.5030   -1.4860 hn        1 MOL      0.291111
     39 H19       -13.5880   -4.7200   -0.6670 hn        1 MOL      0.291111
     40 H20       -14.7830   -3.6740   -0.1220 hn        1 MOL      0.291111
     41 N4         -5.9980   -1.1360   -1.2460 n         1 MOL     -0.751316
     42 C13        -4.6130   -0.8400   -1.5370 c3        1 MOL      0.294741
     43 C14        -3.8650   -2.0960   -1.8500 c         1 MOL      0.412591
     44 O6         -3.8740   -3.0560   -1.1300 o         1 MOL     -0.471910
     45 C15        -3.9820   -0.1080   -0.3100 c3        1 MOL     -0.200923
     46 C16        -2.5720    0.1940   -0.5540 c         1 MOL      0.695871
     47 O7         -1.6870   -0.4540   -0.0950 o         1 MOL     -0.732019
     48 O8         -2.2740    1.2330   -1.2130 o         1 MOL     -0.732019
     49 H21        -6.1180   -1.6400   -0.3840 hn        1 MOL      0.322638
     50 H22        -4.4220   -0.1360   -2.3480 h1        1 MOL      0.017325
     51 H23        -4.1350   -0.7280    0.5800 hc        1 MOL      0.081991
     52 H24        -4.4820    0.8620   -0.2340 hc        1 MOL      0.081991
     53 N5         -3.2420   -2.0690   -2.9620 n         1 MOL     -0.200600
     54 C17        -2.5950   -3.2120   -3.6400 c3        1 MOL     -0.191260
     55 C18        -1.7350   -4.1300   -2.7230 c         1 MOL      0.546801
     56 O9         -1.5430   -5.3110   -3.0250 o         1 MOL     -0.515128
     57 H25        -3.4410   -1.2450   -3.5060 hn        1 MOL      0.212686
     58 H26        -1.9740   -2.7780   -4.4170 h1        1 MOL      0.114702
     59 H27        -3.4200   -3.7640   -4.0850 h1        1 MOL      0.114702
     60 N6         -1.2360   -3.6100   -1.5220 n         1 MOL     -0.207896
     61 C19        -0.2710   -4.3030   -0.7060 c3        1 MOL     -0.084067
     62 C20        -0.5100   -3.9560    0.8260 c         1 MOL      0.487758
     63 O10         0.3970   -4.0920    1.6210 o         1 MOL     -0.561790
     64 C21         1.1280   -4.1480   -1.2490 c3        1 MOL     -0.087191
     65 C22         1.8240   -2.8290   -0.9610 c         1 MOL      0.656034
     66 N7          3.1150   -2.7520   -1.3090 n         1 MOL     -0.896769
     67 O11         1.3080   -1.8320   -0.4510 o         1 MOL     -0.500107
     68 H28        -1.3900   -2.6560   -1.2510 hn        1 MOL     -0.015235
     69 H29        -0.5870   -5.3470   -0.7330 h1        1 MOL      0.120425
     70 H30         1.0420   -4.2970   -2.3300 hc        1 MOL      0.064816
     71 H31         1.6960   -4.9620   -0.8100 hc        1 MOL      0.064816
     72 H32         3.5750   -3.5970   -1.6130 hn        1 MOL      0.373647
     73 H33         3.5950   -2.0220   -0.7870 hn        1 MOL      0.373647
     74 N8         -1.6730   -3.3730    1.1490 n         1 MOL     -0.043946
     75 C23        -2.1790   -3.1970    2.5220 c3        1 MOL     -0.347454
     76 C24        -1.4490   -2.2410    3.4290 c         1 MOL      0.711055
     77 O12        -1.2800   -2.4340    4.6220 o         1 MOL     -0.555532
     78 H34        -2.2480   -3.2390    0.3290 hn        1 MOL      0.096503
     79 H35        -2.1430   -4.1580    3.0260 h1        1 MOL      0.129142
     80 H36        -3.1640   -2.7330    2.4460 h1        1 MOL      0.129142
     81 N9         -0.9660   -1.1770    2.7770 n         1 MOL     -0.657428
     82 C25        -0.1410   -0.1510    3.4540 c3        1 MOL      0.159753
     83 C26         0.9920    0.3100    2.5670 c         1 MOL      0.571235
     84 O13         0.8260    0.5300    1.3590 o         1 MOL     -0.612975
     85 C27        -1.0320    0.9510    3.9040 c3        1 MOL     -0.238274
     86 C28        -0.3950    2.3180    4.1230 ca        1 MOL      0.023241
     87 C29         0.3030    2.5900    5.3250 ca        1 MOL     -0.132291
     88 C30        -0.4820    3.3660    3.1660 ca        1 MOL     -0.132291
     89 C31         0.8580    3.8750    5.5460 ca        1 MOL     -0.219627
     90 C32         0.0920    4.6220    3.4290 ca        1 MOL     -0.219627
     91 C33         0.7970    4.8920    4.5880 ca        1 MOL      0.327186
     92 O14         1.2260    6.1890    4.8680 oh        1 MOL     -0.525153
     93 H37        -1.0790   -1.1190    1.7760 hn        1 MOL      0.448669
     94 H38         0.2740   -0.7280    4.2800 h1        1 MOL      0.057905
     95 H39        -1.4810    0.5930    4.8290 hc        1 MOL      0.108875
     96 H40        -1.7830    1.0390    3.1270 hc        1 MOL      0.108875
     97 H41         0.2160    1.8420    6.1010 ha        1 MOL      0.123977
     98 H42        -1.1020    3.2760    2.2860 ha        1 MOL      0.123977
     99 H43         1.4440    4.0070    6.4340 ha        1 MOL      0.130148
    100 H44        -0.1360    5.4000    2.7040 ha        1 MOL      0.130148
    101 H45         1.0420    6.9240    4.2830 ho        1 MOL      0.395830
    102 N10         2.2070    0.3020    3.1710 n         1 MOL     -0.476217
    103 C34         3.4850    0.5120    2.3740 c3        1 MOL     -0.027101
    104 C35         3.9610   -0.8120    1.7780 c         1 MOL      0.352889
    105 O15         4.3160   -0.8730    0.6260 o         1 MOL     -0.544542
    106 C36         4.5570    1.1320    3.3300 c3        1 MOL      0.071439
    107 C37         4.0710    2.4950    3.9890 c3        1 MOL      0.217082
    108 C38         5.8800    1.3450    2.5930 c3        1 MOL     -0.358994
    109 C39         3.4550    3.5800    3.0630 c3        1 MOL     -0.138030
    110 H46         2.2410    0.1120    4.1540 hn        1 MOL      0.283278
    111 H47         3.3870    1.2480    1.5760 h1        1 MOL      0.184415
    112 H48         4.7660    0.5570    4.2410 hc        1 MOL     -0.011705
    113 H49         4.8860    2.8980    4.5810 hc        1 MOL     -0.038229
    114 H50         3.2950    2.2220    4.7010 hc        1 MOL     -0.038229
    115 H51         5.7450    1.8280    1.6150 hc        1 MOL      0.106374
    116 H52         6.6240    1.9060    3.1640 hc        1 MOL      0.106374
    117 H53         6.3410    0.3690    2.4130 hc        1 MOL      0.106374
    118 H54         4.2120    3.9280    2.3630 hc        1 MOL      0.022133
    119 H55         2.6000    3.1570    2.5160 hc        1 MOL      0.022133
    120 H56         3.2130    4.4730    3.6400 hc        1 MOL      0.022133
    121 N11         3.9350   -1.9180    2.5400 n         1 MOL     -0.195655
    122 C40         4.0710   -3.2430    1.8710 c3        1 MOL     -0.319326
    123 C41         5.5080   -3.5050    1.3680 c         1 MOL      0.676545
    124 O16         5.7040   -4.1190    0.3230 o         1 MOL     -0.534726
    125 C42         3.6080   -4.3050    2.7990 c3        1 MOL     -0.047168
    126 O17         4.4600   -4.2710    3.9120 oh        1 MOL     -0.596907
    127 H57         3.8480   -1.8130    3.5440 hn        1 MOL      0.299892
    128 H58         3.3100   -3.2320    1.0910 h1        1 MOL      0.223445
    129 H59         3.7980   -5.2310    2.2690 h1        1 MOL      0.132130
    130 H60         2.6140   -4.0780    3.1850 h1        1 MOL      0.132130
    131 H61         4.8470   -5.1500    3.9260 ho        1 MOL      0.423375
    132 N12         6.4540   -2.8000    1.9480 n         1 MOL     -0.387239
    133 C43         7.8740   -2.7530    1.6200 c3        1 MOL      0.090001
    134 C44         8.2310   -2.4650    0.1080 c         1 MOL      0.579669
    135 O18         9.1230   -2.9660   -0.4820 o         1 MOL     -0.513040
    136 C45         8.5670   -4.0610    2.0720 c3        1 MOL     -0.355204
    137 H62         6.3040   -2.2510    2.7850 hn        1 MOL      0.257895
    138 H63         8.2230   -1.8900    2.1900 h1        1 MOL      0.068624
    139 H64         9.6240   -3.9630    1.8120 hc        1 MOL      0.103402
    140 H65         8.4420   -4.1980    3.1500 hc        1 MOL      0.103402
    141 H66         8.1410   -4.9590    1.6300 hc        1 MOL      0.103402
    142 N13         7.3110   -1.6400   -0.4750 n         1 MOL     -0.627480
    143 C46         7.3840   -1.0780   -1.8180 c3        1 MOL      0.559066
    144 C47         7.8510    0.3710   -1.8720 c         1 MOL      0.269898
    145 O19         7.5010    1.1400   -0.9910 o         1 MOL     -0.450659
    146 C48         5.9410   -1.1450   -2.3530 c3        1 MOL     -0.364170
    147 H67         6.5170   -1.5500    0.1500 hn        1 MOL      0.226480
    148 H68         8.0400   -1.7810   -2.3480 h1        1 MOL     -0.020294
    149 H69         5.5570   -2.1600   -2.2490 hc        1 MOL      0.096133
    150 H70         5.2730   -0.4020   -1.9230 hc        1 MOL      0.096133
    151 H71         6.1260   -1.1650   -3.4240 hc        1 MOL      0.096133
    152 N14         8.6420    0.7450   -2.8450 n         1 MOL     -0.384367
    153 C49         9.1540    2.0890   -3.2110 c3        1 MOL     -0.188504
    154 C50        10.0250    2.7910   -2.1070 c         1 MOL      0.448138
    155 O20        10.1930    4.0320   -2.1250 o         1 MOL     -0.484914
    156 C51         8.0070    3.0300   -3.6450 c3        1 MOL      0.235787
    157 C52         7.1970    2.5360   -4.8530 c3        1 MOL      0.011157
    158 C53         6.3140    3.7180   -5.1730 c         1 MOL      0.582772
    159 O21         6.8110    4.7050   -5.7610 o         1 MOL     -0.687959
    160 O22         5.1720    3.6210   -4.6730 o         1 MOL     -0.687959
    161 H72         8.9410   -0.0530   -3.3870 hn        1 MOL      0.254065
    162 H73         9.9000    1.9630   -4.0080 h1        1 MOL      0.128317
    163 H74         8.4600    3.9790   -3.9300 hc        1 MOL      0.007925
    164 H75         7.3030    3.3280   -2.8650 hc        1 MOL      0.007925
    165 H76         6.5670    1.6460   -4.7550 hc        1 MOL     -0.074982
    166 H77         7.8920    2.3450   -5.6720 hc        1 MOL     -0.074982
    167 N15        10.5730    2.0170   -1.1580 n         1 MOL     -0.273763
    168 C54        11.1770    2.5460    0.0710 c3        1 MOL     -0.227919
    169 H78        10.5420    3.3320    0.4780 h1        1 MOL      0.105669
    170 H79        11.2750    1.7440    0.8030 h1        1 MOL      0.105669
    171 H80        12.1620    2.9550   -0.1550 h1        1 MOL      0.105669
    172 H81        10.4490    1.0140   -1.1230 hn        1 MOL      0.246909
    173 Ca1         0.4360    0.7070   -1.1400 Ca        1 MOL      1.753901
    174 O23         0.6230    2.1870   -3.3590 oh        1 MOL     -0.816136
    175 H82         1.4770    2.1340   -3.7690 ho        1 MOL      0.408390
    176 H83         0.1340    2.8140   -3.8960 ho        1 MOL      0.408390
    177 O24         2.5780    2.3440   -0.6160 oh        1 MOL     -0.816136
    178 H84         3.4570    2.4540   -0.9830 ho        1 MOL      0.408390
    179 H85         2.5160    3.0240    0.0620 ho        1 MOL      0.408390
    180 O25        -0.7710   -0.4970   -3.1740 oh        1 MOL     -0.816136
    181 H86        -1.5560   -0.1160   -3.5600 ho        1 MOL      0.408390
    182 H87        -0.3250   -0.9240   -3.9100 ho        1 MOL      0.408390
    183 O26         2.4130   -0.0420   -2.6470 oh        1 MOL     -0.816136
    184 H88         2.7270    0.4330   -3.4170 ho        1 MOL      0.408390
    185 H89         2.7370   -0.9400   -2.7760 ho        1 MOL      0.408390
    186 O27        -0.1700    3.2150   -0.6590 oh        1 MOL     -0.816136
    187 H90         0.2150    4.0930   -0.6310 ho        1 MOL      0.408390
    188 H91        -1.1160    3.3720   -0.7560 ho        1 MOL      0.408390
@<TRIPOS>BOND
     1    1    2 1   
     2    1    4 1   
     3    1    5 1   
     4    1    6 1   
     5    2    3 2   
     6    2    7 1   
     7    7    8 1   
     8    7   15 1   
     9    8    9 1   
    10    8   11 1   
    11    8   16 1   
    12    9   10 2   
    13    9   19 1   
    14   11   12 1   
    15   11   17 1   
    16   11   18 1   
    17   12   13 1   
    18   12   14 1   
    19   19   20 1   
    20   19   28 1   
    21   20   21 1   
    22   20   23 1   
    23   20   29 1   
    24   21   22 2   
    25   21   41 1   
    26   23   24 1   
    27   23   30 1   
    28   23   31 1   
    29   24   25 1   
    30   24   32 1   
    31   24   33 1   
    32   25   26 1   
    33   25   34 1   
    34   25   35 1   
    35   26   27 1   
    36   26   36 1   
    37   26   37 1   
    38   27   38 1   
    39   27   39 1   
    40   27   40 1   
    41   41   42 1   
    42   41   49 1   
    43   42   43 1   
    44   42   45 1   
    45   42   50 1   
    46   43   44 2   
    47   43   53 1   
    48   45   46 1   
    49   45   51 1   
    50   45   52 1   
    51   46   47 1   
    52   46   48 1   
    53   53   54 1   
    54   53   57 1   
    55   54   55 1   
    56   54   58 1   
    57   54   59 1   
    58   55   56 2   
    59   55   60 1   
    60   60   61 1   
    61   60   68 1   
    62   61   62 1   
    63   61   64 1   
    64   61   69 1   
    65   62   63 2   
    66   62   74 1   
    67   64   65 1   
    68   64   70 1   
    69   64   71 1   
    70   65   66 1   
    71   65   67 2   
    72   66   72 1   
    73   66   73 1   
    74   74   75 1   
    75   74   78 1   
    76   75   76 1   
    77   75   79 1   
    78   75   80 1   
    79   76   77 2   
    80   76   81 1   
    81   81   82 1   
    82   81   93 1   
    83   82   83 1   
    84   82   85 1   
    85   82   94 1   
    86   83   84 2   
    87   83  102 1   
    88   85   86 1   
    89   85   95 1   
    90   85   96 1   
    91   86   87 ar  
    92   86   88 ar  
    93   87   89 ar  
    94   87   97 1   
    95   88   90 ar  
    96   88   98 1   
    97   89   91 ar  
    98   89   99 1   
    99   90   91 ar  
   100   90  100 1   
   101   91   92 1   
   102   92  101 1   
   103  102  103 1   
   104  102  110 1   
   105  103  104 1   
   106  103  106 1   
   107  103  111 1   
   108  104  105 2   
   109  104  121 1   
   110  106  107 1   
   111  106  108 1   
   112  106  112 1   
   113  107  109 1   
   114  107  113 1   
   115  107  114 1   
   116  108  115 1   
   117  108  116 1   
   118  108  117 1   
   119  109  118 1   
   120  109  119 1   
   121  109  120 1   
   122  121  122 1   
   123  121  127 1   
   124  122  123 1   
   125  122  125 1   
   126  122  128 1   
   127  123  124 2   
   128  123  132 1   
   129  125  126 1   
   130  125  129 1   
   131  125  130 1   
   132  126  131 1   
   133  132  133 1   
   134  132  137 1   
   135  133  134 1   
   136  133  136 1   
   137  133  138 1   
   138  134  135 2   
   139  134  142 1   
   140  136  139 1   
   141  136  140 1   
   142  136  141 1   
   143  142  143 1   
   144  142  147 1   
   145  143  144 1   
   146  143  146 1   
   147  143  148 1   
   148  144  145 2   
   149  144  152 1   
   150  146  149 1   
   151  146  150 1   
   152  146  151 1   
   153  152  153 1   
   154  152  161 1   
   155  153  154 1   
   156  153  156 1   
   157  153  162 1   
   158  154  155 2   
   159  154  167 1   
   160  156  157 1   
   161  156  163 1   
   162  156  164 1   
   163  157  158 1   
   164  157  165 1   
   165  157  166 1   
   166  158  159 1   
   167  158  160 1   
   168  167  168 1   
   169  167  172 1   
   170  168  169 1   
   171  168  170 1   
   172  168  171 1   
   173  174  175 1   
   174  174  176 1   
   175  177  178 1   
   176  177  179 1   
   177  180  181 1   
   178  180  182 1   
   179  183  184 1   
   180  183  185 1   
   181  186  187 1   
   182  186  188 1   
@<TRIPOS>SUBSTRUCTURE
     1 MOL         1 TEMP              0 ****  ****    0 ROOT
