@<TRIPOS>MOLECULE
MOL
  179   176     1     0     0
SMALL
resp


@<TRIPOS>ATOM
      1 C1         -0.3220   -2.9380    5.8210 c3        1 MOL     -0.373875
      2 C2          0.0210   -3.1010    4.3360 c         1 MOL      0.725054
      3 O1         -0.8720   -3.3800    3.5140 o         1 MOL     -0.586591
      4 H1         -0.2790   -3.9100    6.3130 hc        1 MOL      0.113048
      5 H2          0.3950   -2.2630    6.2880 hc        1 MOL      0.113048
      6 H3         -1.3270   -2.5260    5.9190 hc        1 MOL      0.113048
      7 N1          1.2660   -2.9270    3.9200 n         1 MOL     -0.606237
      8 C3          1.6800   -2.9250    2.4850 c3        1 MOL      0.117761
      9 C4          1.6080   -4.3070    1.7280 c         1 MOL      0.467635
     10 O2          1.6860   -5.3820    2.3340 o         1 MOL     -0.543765
     11 C5          3.0970   -2.3170    2.4080 c3        1 MOL     -0.173119
     12 C6          3.2860   -1.5630    1.0640 c         1 MOL      0.579696
     13 O3          4.0150   -0.5390    1.0610 o         1 MOL     -0.700587
     14 O4          2.8320   -1.9060   -0.0810 o         1 MOL     -0.700587
     15 H4          2.0170   -2.7920    4.5800 hn        1 MOL      0.333742
     16 H5          1.0770   -2.2300    1.8970 h1        1 MOL      0.056264
     17 H6          3.9000   -3.0330    2.4990 hc        1 MOL      0.093161
     18 H7          3.1160   -1.6110    3.2380 hc        1 MOL      0.093161
     19 N2          1.6370   -4.2420    0.4100 n         1 MOL     -0.255634
     20 C7          1.5870   -5.3840   -0.5390 c3        1 MOL      0.052241
     21 C8          2.6840   -5.4690   -1.5920 c         1 MOL      0.398627
     22 O5          3.2900   -6.5430   -1.8920 o         1 MOL     -0.511640
     23 C9          0.2130   -5.3620   -1.2890 c3        1 MOL     -0.128036
     24 C10        -0.9580   -5.6980   -0.4170 c3        1 MOL     -0.017281
     25 C11        -2.1110   -5.7600   -1.3230 c3        1 MOL      0.265306
     26 C12        -3.2710   -6.5020   -0.5570 c3        1 MOL     -0.073496
     27 N3         -4.5060   -6.4790   -1.3950 n4        1 MOL     -0.106743
     28 H8          1.7600   -3.3090    0.0380 hn        1 MOL      0.204050
     29 H9          1.6900   -6.2850    0.0640 h1        1 MOL      0.082522
     30 H10         0.2550   -6.0260   -2.1520 hc        1 MOL      0.027078
     31 H11         0.1330   -4.3460   -1.6650 hc        1 MOL      0.027078
     32 H12        -1.1370   -4.9390    0.3540 hc        1 MOL      0.032595
     33 H13        -0.8040   -6.6720    0.0470 hc        1 MOL      0.032595
     34 H14        -2.0320   -6.4240   -2.1810 hc        1 MOL     -0.046494
     35 H15        -2.3970   -4.7820   -1.6920 hc        1 MOL     -0.046494
     36 H16        -3.3600   -5.9150    0.3620 hx        1 MOL      0.078265
     37 H17        -2.9150   -7.5050   -0.3120 hx        1 MOL      0.078265
     38 H18        -4.2560   -6.8630   -2.2980 hn        1 MOL      0.205097
     39 H19        -5.1790   -7.0950   -0.9580 hn        1 MOL      0.205097
     40 H20        -4.9460   -5.6020   -1.6450 hn        1 MOL      0.205097
     41 N4          3.0770   -4.3130   -2.1670 n         1 MOL     -0.366635
     42 C13         4.3410   -4.1360   -2.9190 c3        1 MOL      0.090019
     43 C14         5.6010   -4.0970   -1.9780 c         1 MOL      0.437912
     44 O6          6.6470   -4.5870   -2.3690 o         1 MOL     -0.539025
     45 C15         4.2580   -2.9240   -3.8620 c3        1 MOL     -0.278846
     46 C16         3.9710   -1.6090   -3.1640 c         1 MOL      0.800424
     47 O7          4.8660   -0.9930   -2.5190 o         1 MOL     -0.812021
     48 O8          2.7850   -1.1310   -3.1930 o         1 MOL     -0.812021
     49 H21         2.5060   -3.5340   -1.8640 hn        1 MOL      0.262744
     50 H22         4.5320   -4.9610   -3.6120 h1        1 MOL      0.096679
     51 H23         3.5830   -3.1450   -4.6850 hc        1 MOL      0.093110
     52 H24         5.2320   -2.7300   -4.3290 hc        1 MOL      0.093110
     53 N5          5.4380   -3.5170   -0.7900 n         1 MOL     -0.014306
     54 C17         6.4120   -3.4640    0.2950 c3        1 MOL     -0.133962
     55 C18         6.7860   -2.0680    0.8180 c         1 MOL      0.538724
     56 O9          6.9480   -1.8940    2.0230 o         1 MOL     -0.571185
     57 H25         4.5730   -3.0050   -0.6580 hn        1 MOL      0.026850
     58 H26         7.3070   -4.0370    0.0600 h1        1 MOL      0.082994
     59 H27         5.8560   -3.9490    1.0900 h1        1 MOL      0.082994
     60 N6          6.9720   -1.1190   -0.0410 n         1 MOL     -0.292815
     61 C19         7.5810    0.2320    0.2300 c3        1 MOL      0.297726
     62 C20         6.6330    1.3980   -0.0080 c         1 MOL      0.427519
     63 O10         5.5470    1.2830   -0.6210 o         1 MOL     -0.450368
     64 C21         8.8460    0.3260   -0.6270 c3        1 MOL     -0.472104
     65 C22         9.7600   -0.8740   -0.4790 c         1 MOL      0.792132
     66 N7         10.8850   -0.7150    0.0400 n         1 MOL     -0.794091
     67 O11         9.4970   -1.9050   -1.0060 o         1 MOL     -0.588687
     68 H28         6.5950   -1.1890   -0.9710 hn        1 MOL      0.270422
     69 H29         7.8770    0.2710    1.2810 h1        1 MOL     -0.002513
     70 H30         9.3810    1.1960   -0.2560 hc        1 MOL      0.098741
     71 H31         8.5680    0.5360   -1.6480 hc        1 MOL      0.098741
     72 H32        11.0530    0.1770    0.4970 hn        1 MOL      0.370607
     73 H33        11.4960   -1.5120   -0.0250 hn        1 MOL      0.370607
     74 N8          7.1150    2.5880    0.3160 n         1 MOL     -0.393312
     75 C23         6.3730    3.8320    0.1490 c3        1 MOL     -0.280572
     76 C24         5.0200    3.8490    0.8060 c         1 MOL      0.685685
     77 O12         4.9600    3.5060    1.9920 o         1 MOL     -0.515861
     78 H34         7.9220    2.5730    0.9310 hn        1 MOL      0.325954
     79 H35         6.1210    3.8040   -0.9130 h1        1 MOL      0.138251
     80 H36         6.9750    4.6950    0.4060 h1        1 MOL      0.138251
     81 N9          4.0980    4.5020    0.1300 n         1 MOL     -0.615521
     82 C25         2.7960    4.5990    0.6060 c3        1 MOL      0.298499
     83 C26         2.1170    3.2710    1.0110 c         1 MOL      0.421476
     84 O13         2.6700    2.2230    0.7930 o         1 MOL     -0.421768
     85 C27         2.0200    5.3410   -0.4310 c3        1 MOL     -0.126965
     86 C28         2.4400    6.8260   -0.6760 ca        1 MOL      0.070291
     87 C29         3.4240    7.2170   -1.6760 ca        1 MOL     -0.187609
     88 C30         1.9180    7.8600    0.1640 ca        1 MOL     -0.187609
     89 C31         3.8330    8.5690   -1.8080 ca        1 MOL     -0.198567
     90 C32         2.3350    9.1670    0.0330 ca        1 MOL     -0.198567
     91 C33         3.3310    9.4930   -0.8890 ca        1 MOL      0.274365
     92 O14         3.7370   10.8290   -0.8520 oh        1 MOL     -0.444015
     93 H37         4.3300    4.8270   -0.7940 hn        1 MOL      0.257588
     94 H38         2.7420    5.2850    1.4530 h1        1 MOL      0.040393
     95 H39         0.9700    5.3200   -0.1310 hc        1 MOL      0.026404
     96 H40         2.0560    4.7530   -1.3510 hc        1 MOL      0.026404
     97 H41         3.8690    6.5310   -2.3770 ha        1 MOL      0.144799
     98 H42         1.2260    7.6530    0.9740 ha        1 MOL      0.144799
     99 H43         4.5540    8.8690   -2.5560 ha        1 MOL      0.151412
    100 H44         2.0670    9.9240    0.7610 ha        1 MOL      0.151412
    101 H45         4.4240   10.9500   -1.5160 ho        1 MOL      0.341625
    102 N10         0.9110    3.3040    1.5930 n         1 MOL     -0.541256
    103 C34         0.0990    2.1500    2.0750 c3        1 MOL      0.040511
    104 C35        -0.2400    0.9790    1.1110 c         1 MOL      0.477689
    105 O15         0.6830    0.3690    0.5190 o         1 MOL     -0.452314
    106 C36         0.7740    1.5180    3.3420 c3        1 MOL      0.086880
    107 C37         0.0740    0.3350    4.0620 c3        1 MOL     -0.143200
    108 C38         1.1340    2.6690    4.3790 c3        1 MOL     -0.078346
    109 C39        -1.3820    0.5720    4.5060 c3        1 MOL     -0.175540
    110 H46         0.4510    4.2070    1.5930 hn        1 MOL      0.301035
    111 H47        -0.7930    2.6530    2.4190 h1        1 MOL      0.091943
    112 H48         1.7630    1.1840    3.0120 hc        1 MOL      0.072159
    113 H49         0.6230    0.1510    4.9850 hc        1 MOL      0.060490
    114 H50         0.0850   -0.5060    3.3640 hc        1 MOL      0.060490
    115 H51         1.6350    2.1520    5.1900 hc        1 MOL      0.023544
    116 H52         1.8040    3.4540    4.0130 hc        1 MOL      0.023544
    117 H53         0.2840    3.2060    4.8040 hc        1 MOL      0.023544
    118 H54        -1.7990   -0.3770    4.8450 hc        1 MOL      0.046473
    119 H55        -1.3670    1.3660    5.2500 hc        1 MOL      0.046473
    120 H56        -1.9250    0.9700    3.6490 hc        1 MOL      0.046473
    121 N11        -1.5530    0.6640    0.9410 n         1 MOL     -0.402543
    122 C40        -1.9430   -0.5110    0.0790 c3        1 MOL     -0.182372
    123 C41        -3.4180   -0.5460   -0.2680 c         1 MOL      0.697722
    124 O16        -3.7980   -1.3630   -1.1080 o         1 MOL     -0.565902
    125 C42        -1.7860   -1.7810    0.9290 c3        1 MOL      0.363743
    126 O17        -2.4440   -1.6640    2.1840 oh        1 MOL     -0.669290
    127 H57        -2.3280    1.1350    1.3830 hn        1 MOL      0.221117
    128 H58        -1.2740   -0.7080   -0.7620 h1        1 MOL      0.149437
    129 H59        -0.7340   -1.9970    1.1180 h1        1 MOL     -0.045838
    130 H60        -2.2390   -2.5680    0.3170 h1        1 MOL     -0.045838
    131 H61        -2.1020   -2.2250    2.8780 ho        1 MOL      0.422138
    132 N12        -4.2430    0.3420    0.3210 n         1 MOL     -0.614398
    133 C43        -5.6080    0.5960   -0.1180 c3        1 MOL      0.067097
    134 C44        -5.7340    1.1670   -1.5390 c         1 MOL      0.591249
    135 O18        -4.8050    1.8060   -2.0190 o         1 MOL     -0.567808
    136 C45        -6.2590    1.4700    1.0190 c3        1 MOL     -0.283832
    137 H62        -3.7910    0.9020    1.0420 hn        1 MOL      0.381064
    138 H63        -6.1190   -0.3650   -0.0500 h1        1 MOL      0.136642
    139 H64        -7.3020    1.6830    0.8200 hc        1 MOL      0.091862
    140 H65        -6.2920    0.8830    1.9420 hc        1 MOL      0.091862
    141 H66        -5.6350    2.3270    1.2690 hc        1 MOL      0.091862
    142 N13        -6.7660    0.8270   -2.2860 n         1 MOL     -0.624049
    143 C46        -7.9770    0.1520   -1.9110 c3        1 MOL      0.451506
    144 C47        -9.1000    0.8240   -2.7600 c         1 MOL      0.362007
    145 O19        -8.9120    1.1130   -3.8830 o         1 MOL     -0.491408
    146 C48        -7.8460   -1.3060   -2.1860 c3        1 MOL     -0.206364
    147 H67        -6.6040    1.1920   -3.2170 hn        1 MOL      0.327002
    148 H68        -8.0830    0.1770   -0.8280 h1        1 MOL     -0.048894
    149 H69        -7.3050   -1.7510   -1.3480 hc        1 MOL      0.053157
    150 H70        -8.8610   -1.7060   -2.1940 hc        1 MOL      0.053157
    151 H71        -7.3570   -1.4850   -3.1380 hc        1 MOL      0.053157
    152 N14       -10.3330    0.8500   -2.2590 n         1 MOL     -0.340438
    153 C49       -10.7460    0.5760   -0.8100 c3        1 MOL     -0.290066
    154 C50       -10.2570    1.6950    0.1010 c         1 MOL      0.501720
    155 O20        -9.9330    1.4370    1.2670 o         1 MOL     -0.516698
    156 C51       -12.1870    0.2750   -0.6200 c3        1 MOL      0.100715
    157 C52       -12.6090   -0.0450    0.8340 c3        1 MOL     -0.388687
    158 C53       -14.0550   -0.5170    0.8960 c         1 MOL      0.735915
    159 O21       -14.5150   -1.6100    0.5180 o         1 MOL     -0.656128
    160 O22       -14.9350    0.3340    1.2680 o         1 MOL     -0.656128
    161 H72       -11.0940    1.0870   -2.8620 hn        1 MOL      0.278300
    162 H73       -10.2870   -0.3580   -0.4970 h1        1 MOL      0.157157
    163 H74       -12.5480   -0.5720   -1.1900 hc        1 MOL      0.036381
    164 H75       -12.7090    1.1460   -1.0040 hc        1 MOL      0.036381
    165 H76       -12.4470    0.8270    1.4670 hc        1 MOL      0.101801
    166 H77       -11.9760   -0.8530    1.1950 hc        1 MOL      0.101801
    167 N15       -10.0850    2.9190   -0.3930 n         1 MOL     -0.272848
    168 C54        -9.3860    4.0690    0.2520 c3        1 MOL     -0.118678
    169 H78        -9.5850    4.9780   -0.3160 h1        1 MOL      0.083659
    170 H79        -9.7500    4.1900    1.2710 h1        1 MOL      0.083659
    171 H80        -8.3120    3.8790    0.2680 h1        1 MOL      0.083659
    172 H81       -10.4810    3.0360   -1.3120 hn        1 MOL      0.249714
    173 Ca1         3.0100    0.4790   -1.2210 Ca        1 MOL      1.746516
    174 O23         0.7490    1.4340   -2.1400 oh        1 MOL     -0.884589
    175 H82         0.7350    2.2610   -2.6200 ho        1 MOL      0.435990
    176 H83        -0.1070    1.0360   -2.3150 ho        1 MOL      0.435990
    177 O24         3.5870    2.5050   -2.8620 oh        1 MOL     -0.884589
    178 H84         3.0110    2.3050   -3.5980 ho        1 MOL      0.435990
    179 H85         4.2630    3.0760   -3.2230 ho        1 MOL      0.435990
@<TRIPOS>BOND
     1    1    2 1   
     2    1    4 1   
     3    1    5 1   
     4    1    6 1   
     5    2    3 2   
     6    2    7 1   
     7    7    8 1   
     8    7   15 1   
     9    8    9 1   
    10    8   11 1   
    11    8   16 1   
    12    9   10 2   
    13    9   19 1   
    14   11   12 1   
    15   11   17 1   
    16   11   18 1   
    17   12   13 1   
    18   12   14 1   
    19   19   20 1   
    20   19   28 1   
    21   20   21 1   
    22   20   23 1   
    23   20   29 1   
    24   21   22 2   
    25   21   41 1   
    26   23   24 1   
    27   23   30 1   
    28   23   31 1   
    29   24   25 1   
    30   24   32 1   
    31   24   33 1   
    32   25   26 1   
    33   25   34 1   
    34   25   35 1   
    35   26   27 1   
    36   26   36 1   
    37   26   37 1   
    38   27   38 1   
    39   27   39 1   
    40   27   40 1   
    41   41   42 1   
    42   41   49 1   
    43   42   43 1   
    44   42   45 1   
    45   42   50 1   
    46   43   44 2   
    47   43   53 1   
    48   45   46 1   
    49   45   51 1   
    50   45   52 1   
    51   46   47 1   
    52   46   48 1   
    53   53   54 1   
    54   53   57 1   
    55   54   55 1   
    56   54   58 1   
    57   54   59 1   
    58   55   56 2   
    59   55   60 1   
    60   60   61 1   
    61   60   68 1   
    62   61   62 1   
    63   61   64 1   
    64   61   69 1   
    65   62   63 2   
    66   62   74 1   
    67   64   65 1   
    68   64   70 1   
    69   64   71 1   
    70   65   66 1   
    71   65   67 2   
    72   66   72 1   
    73   66   73 1   
    74   74   75 1   
    75   74   78 1   
    76   75   76 1   
    77   75   79 1   
    78   75   80 1   
    79   76   77 2   
    80   76   81 1   
    81   81   82 1   
    82   81   93 1   
    83   82   83 1   
    84   82   85 1   
    85   82   94 1   
    86   83   84 2   
    87   83  102 1   
    88   85   86 1   
    89   85   95 1   
    90   85   96 1   
    91   86   87 ar  
    92   86   88 ar  
    93   87   89 ar  
    94   87   97 1   
    95   88   90 ar  
    96   88   98 1   
    97   89   91 ar  
    98   89   99 1   
    99   90   91 ar  
   100   90  100 1   
   101   91   92 1   
   102   92  101 1   
   103  102  103 1   
   104  102  110 1   
   105  103  104 1   
   106  103  106 1   
   107  103  111 1   
   108  104  105 2   
   109  104  121 1   
   110  106  107 1   
   111  106  108 1   
   112  106  112 1   
   113  107  109 1   
   114  107  113 1   
   115  107  114 1   
   116  108  115 1   
   117  108  116 1   
   118  108  117 1   
   119  109  118 1   
   120  109  119 1   
   121  109  120 1   
   122  121  122 1   
   123  121  127 1   
   124  122  123 1   
   125  122  125 1   
   126  122  128 1   
   127  123  124 2   
   128  123  132 1   
   129  125  126 1   
   130  125  129 1   
   131  125  130 1   
   132  126  131 1   
   133  132  133 1   
   134  132  137 1   
   135  133  134 1   
   136  133  136 1   
   137  133  138 1   
   138  134  135 2   
   139  134  142 1   
   140  136  139 1   
   141  136  140 1   
   142  136  141 1   
   143  142  143 1   
   144  142  147 1   
   145  143  144 1   
   146  143  146 1   
   147  143  148 1   
   148  144  145 2   
   149  144  152 1   
   150  146  149 1   
   151  146  150 1   
   152  146  151 1   
   153  152  153 1   
   154  152  161 1   
   155  153  154 1   
   156  153  156 1   
   157  153  162 1   
   158  154  155 2   
   159  154  167 1   
   160  156  157 1   
   161  156  163 1   
   162  156  164 1   
   163  157  158 1   
   164  157  165 1   
   165  157  166 1   
   166  158  159 1   
   167  158  160 1   
   168  167  168 1   
   169  167  172 1   
   170  168  169 1   
   171  168  170 1   
   172  168  171 1   
   173  174  175 1   
   174  174  176 1   
   175  177  178 1   
   176  177  179 1   
@<TRIPOS>SUBSTRUCTURE
     1 MOL         1 TEMP              0 ****  ****    0 ROOT
