@<TRIPOS>MOLECULE
MOL
  192   187     1     0     0
SMALL
resp


@<TRIPOS>ATOM
      1 C1          3.9340   -4.6730    2.0950 c3        1 MOL      0.134284
      2 C2          4.5610   -3.8280    0.9950 c         1 MOL      0.638344
      3 O1          5.1760   -2.8220    1.3370 o         1 MOL     -0.546186
      4 H1          4.6390   -5.4450    2.4060 hc        1 MOL     -0.080001
      5 H2          3.6900   -4.0390    2.9480 hc        1 MOL     -0.080001
      6 H3          3.0250   -5.1430    1.7200 hc        1 MOL     -0.080001
      7 N1          4.6470   -4.3330   -0.2240 n         1 MOL     -0.620499
      8 C3          5.3060   -3.8320   -1.4370 c3        1 MOL      0.174236
      9 C4          6.8500   -3.7340   -1.3510 c         1 MOL      0.345819
     10 O2          7.5340   -4.0300   -2.3390 o         1 MOL     -0.493335
     11 C5          4.5480   -2.5440   -1.9290 c3        1 MOL     -0.628012
     12 C6          3.0690   -2.6530   -2.0980 c         1 MOL      0.713309
     13 O3          2.6280   -2.7440   -3.2930 o         1 MOL     -0.638052
     14 O4          2.3450   -2.4860   -1.0980 o         1 MOL     -0.638052
     15 H4          4.1110   -5.1920   -0.2750 hn        1 MOL      0.331821
     16 H5          5.1350   -4.5750   -2.2150 h1        1 MOL      0.078034
     17 H6          5.0120   -2.2400   -2.8660 hc        1 MOL      0.201782
     18 H7          4.7990   -1.7020   -1.2840 hc        1 MOL      0.201782
     19 N2          7.4500   -3.3750   -0.1950 n         1 MOL     -0.120210
     20 C7          8.8640   -3.4400    0.0870 c3        1 MOL     -0.091276
     21 C8          9.6280   -2.8400   -1.1190 c         1 MOL      0.570306
     22 O5         10.5000   -3.4430   -1.7410 o         1 MOL     -0.573384
     23 C9          9.3500   -4.9070    0.3890 c3        1 MOL      0.033003
     24 C10         8.4020   -5.7420    1.3160 c3        1 MOL      0.198013
     25 C11        10.7960   -4.7170    0.9910 c3        1 MOL     -0.101305
     26 C12         8.8220   -7.2760    1.4520 c3        1 MOL     -0.330559
     27 H8          6.8250   -3.1990    0.5870 hn        1 MOL      0.139237
     28 H9          9.0240   -2.8160    0.9690 h1        1 MOL      0.122440
     29 H10         9.3560   -5.4400   -0.5610 hc        1 MOL      0.042365
     30 H11         7.3790   -5.7400    0.9560 hc        1 MOL     -0.022169
     31 H12         8.4140   -5.3340    2.3260 hc        1 MOL     -0.022169
     32 H13        10.6840   -4.2690    1.9860 hc        1 MOL      0.011755
     33 H14        11.3150   -5.6550    1.1700 hc        1 MOL      0.011755
     34 H15        11.4570   -4.1330    0.3550 hc        1 MOL      0.011755
     35 H16         7.9410   -7.8370    1.7780 hc        1 MOL      0.063458
     36 H17         9.2520   -7.6420    0.5190 hc        1 MOL      0.063458
     37 H18         9.5110   -7.3730    2.2870 hc        1 MOL      0.063458
     38 N3          9.3720   -1.5840   -1.5350 n         1 MOL     -0.451010
     39 C13         8.6090   -0.5670   -0.8130 c3        1 MOL     -0.018096
     40 C14         7.5820    0.0410   -1.7550 c         1 MOL      0.750483
     41 O6          7.8150    0.1570   -2.9310 o         1 MOL     -0.594225
     42 C15         9.4900    0.4910   -0.1240 c3        1 MOL     -0.158888
     43 C16         8.7560    1.4230    0.8460 c         1 MOL      0.599588
     44 O7          9.2130    2.5780    1.0780 o         1 MOL     -0.651691
     45 O8          7.6870    0.9560    1.4830 o         1 MOL     -0.651691
     46 H19         9.7270   -1.3560   -2.4550 hn        1 MOL      0.288529
     47 H20         8.0650   -1.1250   -0.0640 h1        1 MOL     -0.002735
     48 H21        10.1650    0.9050   -0.8710 hc        1 MOL      0.040945
     49 H22        10.1270   -0.1330    0.4950 hc        1 MOL      0.040945
     50 N4          6.4510    0.5720   -1.3040 n         1 MOL     -0.465736
     51 C17         5.3430    0.9620   -2.1570 c3        1 MOL     -0.122083
     52 C18         5.0040    2.4410   -1.9390 c         1 MOL      0.728982
     53 O9          5.8760    3.2170   -1.5600 o         1 MOL     -0.549158
     54 H23         6.2420    0.3870   -0.3350 hn        1 MOL      0.240694
     55 H24         4.4810    0.3160   -1.9510 h1        1 MOL      0.094417
     56 H25         5.5680    0.8960   -3.2250 h1        1 MOL      0.094417
     57 N5          3.7580    2.8410   -2.3540 n         1 MOL     -0.581225
     58 C19         3.2450    4.2140   -2.6420 c3        1 MOL      0.032574
     59 C20         3.2980    5.0780   -1.4030 c         1 MOL      0.418878
     60 O10         3.2140    6.2740   -1.5630 o         1 MOL     -0.570670
     61 C21         1.7710    4.1130   -3.1630 c3        1 MOL     -0.138546
     62 C22         0.9530    3.2220   -2.2600 c         1 MOL      0.722958
     63 O11         0.8190    2.0290   -2.5530 o         1 MOL     -0.655451
     64 O12         0.5480    3.6960   -1.1610 o         1 MOL     -0.655451
     65 H26         3.0670    2.1000   -2.2890 hn        1 MOL      0.257686
     66 H27         3.9100    4.6540   -3.3800 h1        1 MOL      0.113862
     67 H28         1.7400    3.7980   -4.2090 hc        1 MOL      0.014845
     68 H29         1.3430    5.1110   -3.1500 hc        1 MOL      0.014845
     69 N6          3.5420    4.5990   -0.1770 n         1 MOL     -0.073563
     70 C23         3.5790    5.4080    1.1130 c3        1 MOL     -0.387717
     71 C24         2.1880    5.8790    1.5410 c         1 MOL      0.590563
     72 O13         2.0870    6.5830    2.4950 o         1 MOL     -0.587296
     73 H30         3.8090    3.6230   -0.1190 hn        1 MOL      0.198514
     74 H31         4.2940    6.2320    1.0830 h1        1 MOL      0.163575
     75 H32         3.8870    4.7170    1.9040 h1        1 MOL      0.163575
     76 N7          1.0880    5.5140    0.8410 n         1 MOL     -0.076201
     77 C25        -0.2010    6.0410    1.0110 c3        1 MOL      0.310734
     78 C26        -0.8320    5.7870    2.3800 c         1 MOL      0.331884
     79 O14        -1.3910    6.6880    3.0320 o         1 MOL     -0.502570
     80 C27        -0.3680    7.4900    0.4970 c3        1 MOL     -0.032066
     81 C28         0.3050    7.8040   -0.8190 c3        1 MOL     -0.227314
     82 C29        -0.4540    8.9540   -1.6420 c         1 MOL      0.667405
     83 N8          0.1680    9.5310   -2.6800 n         1 MOL     -0.815105
     84 O15        -1.4590    9.5720   -1.2630 o         1 MOL     -0.552003
     85 H33         1.1770    4.8500    0.0770 hn        1 MOL     -0.065731
     86 H34        -0.8630    5.4610    0.3760 h1        1 MOL      0.017317
     87 H35         0.0450    8.1620    1.2510 hc        1 MOL      0.002479
     88 H36        -1.4410    7.6760    0.4610 hc        1 MOL      0.002479
     89 H37         0.2710    6.9300   -1.4690 hc        1 MOL      0.090785
     90 H38         1.3480    8.1100   -0.7080 hc        1 MOL      0.090785
     91 H39         1.0990    9.2210   -2.9260 hn        1 MOL      0.344238
     92 H40        -0.0120   10.5030   -2.8840 hn        1 MOL      0.344238
     93 N9         -0.6000    4.5590    2.9370 n         1 MOL     -0.299815
     94 C30        -1.0140    4.1360    4.2640 c3        1 MOL     -0.037171
     95 C31        -1.9350    2.9080    4.1570 c         1 MOL      0.552959
     96 O16        -2.8290    2.7850    5.0000 o         1 MOL     -0.601035
     97 C32         0.2010    3.7020    5.1490 c3        1 MOL      0.262636
     98 C33         1.0490    2.5540    4.6380 c3        1 MOL     -0.243091
     99 C34         1.2390    4.7810    5.4190 c3        1 MOL     -0.243091
    100 H41        -0.1550    3.8750    2.3440 hn        1 MOL      0.234572
    101 H42        -1.5630    4.8980    4.8250 h1        1 MOL      0.097857
    102 H43        -0.0950    3.4090    6.1590 hc        1 MOL     -0.061819
    103 H44         1.5310    2.9450    3.7430 hc        1 MOL      0.051438
    104 H45         1.7850    2.2270    5.3670 hc        1 MOL      0.051438
    105 H46         0.3960    1.6820    4.5270 hc        1 MOL      0.051438
    106 H47         0.7400    5.6630    5.8240 hc        1 MOL      0.051438
    107 H48         1.9250    4.3680    6.1610 hc        1 MOL      0.051438
    108 H49         1.8500    5.0580    4.5710 hc        1 MOL      0.051438
    109 N10        -1.8270    2.1710    3.0560 n         1 MOL     -0.408154
    110 C35        -2.6140    0.9080    2.7780 c3        1 MOL      0.380798
    111 C36        -3.2380    0.9880    1.3800 c         1 MOL      0.437638
    112 O17        -2.7170    1.6900    0.5150 o         1 MOL     -0.518645
    113 C37        -1.6480   -0.3110    2.9490 c3        1 MOL     -0.528816
    114 C38        -2.2750   -1.5640    3.4310 c         1 MOL      0.673776
    115 N11        -2.5670   -1.6860    4.6530 n         1 MOL     -0.759981
    116 O18        -2.4670   -2.4600    2.6590 o         1 MOL     -0.634511
    117 H50        -1.1880    2.4980    2.3410 hn        1 MOL      0.182056
    118 H51        -3.4520    0.9110    3.4760 h1        1 MOL      0.015466
    119 H52        -0.7530   -0.0750    3.5150 hc        1 MOL      0.183288
    120 H53        -1.3200   -0.6030    1.9500 hc        1 MOL      0.183288
    121 H54        -2.1850   -1.0160    5.3110 hn        1 MOL      0.366793
    122 H55        -2.9810   -2.5730    4.9160 hn        1 MOL      0.366793
    123 N12        -4.2940    0.2030    1.1570 n         1 MOL     -0.625363
    124 C39        -5.0910    0.3550   -0.0790 c3        1 MOL      0.210136
    125 C40        -6.2890   -0.5580    0.1440 c         1 MOL      0.458815
    126 O19        -6.2980   -1.3980    1.0650 o         1 MOL     -0.562536
    127 C41        -4.2430   -0.2150   -1.2890 c3        1 MOL     -0.215876
    128 C42        -4.6290    0.3100   -2.6340 ca        1 MOL     -0.171265
    129 C43        -4.1820    1.5670   -3.1300 ca        1 MOL     -0.002592
    130 C44        -5.4430   -0.4530   -3.4840 ca        1 MOL     -0.002592
    131 C45        -4.5250    2.0140   -4.3630 ca        1 MOL     -0.343914
    132 C46        -5.7870    0.0360   -4.7720 ca        1 MOL     -0.343914
    133 C47        -5.3770    1.2860   -5.1290 ca        1 MOL      0.442157
    134 O20        -5.8010    1.8180   -6.2830 oh        1 MOL     -0.540673
    135 H56        -4.7010   -0.3820    1.8730 hn        1 MOL      0.371345
    136 H57        -5.4590    1.3660   -0.2670 h1        1 MOL      0.089672
    137 H58        -4.3790   -1.2950   -1.2540 hc        1 MOL      0.226408
    138 H59        -3.1840   -0.0400   -1.0800 hc        1 MOL      0.226408
    139 H60        -3.5650    2.1640   -2.4750 ha        1 MOL      0.107512
    140 H61        -5.8230   -1.4280   -3.2280 ha        1 MOL      0.107512
    141 H62        -4.2120    2.9930   -4.6750 ha        1 MOL      0.162958
    142 H63        -6.5730   -0.4690   -5.3180 ha        1 MOL      0.162958
    143 H64        -6.5530    1.4110   -6.7130 ho        1 MOL      0.365535
    144 N13        -7.3420   -0.4640   -0.6430 n         1 MOL     -0.506254
    145 C48        -8.3840   -1.4390   -0.8760 c3        1 MOL      0.195217
    146 C49        -8.0330   -2.3330   -2.0710 c         1 MOL      0.580082
    147 O21        -8.4550   -1.9950   -3.1670 o         1 MOL     -0.612698
    148 C50        -9.7340   -0.7600   -0.9960 c3        1 MOL      0.102773
    149 C51       -10.1110    0.1510    0.1690 c3        1 MOL     -0.130193
    150 C52       -11.4740    0.7600    0.1890 c         1 MOL      0.636679
    151 O22       -11.6560    1.6060   -0.7150 o         1 MOL     -0.692041
    152 O23       -12.3940    0.3290    0.9360 o         1 MOL     -0.692041
    153 H65        -7.3610    0.3680   -1.2090 hn        1 MOL      0.267338
    154 H66        -8.3140   -2.1040   -0.0150 h1        1 MOL      0.053821
    155 H67       -10.3840   -1.6230   -1.0610 hc        1 MOL      0.002804
    156 H68        -9.7760   -0.1480   -1.9030 hc        1 MOL      0.002804
    157 H69        -9.4110    0.9840    0.2340 hc        1 MOL     -0.003969
    158 H70        -9.8470   -0.4180    1.0660 hc        1 MOL     -0.003969
    159 N14        -7.2830   -3.3910   -1.9480 n         1 MOL     -0.582963
    160 C53        -6.7420   -4.0380   -0.7750 c3        1 MOL      0.048776
    161 C54        -7.8160   -4.6150    0.2800 c         1 MOL      0.369466
    162 O24        -8.8420   -5.0940   -0.2210 o         1 MOL     -0.491435
    163 C55        -5.9550   -5.1670   -1.3110 c3        1 MOL      0.184072
    164 C56        -5.0380   -5.9630   -0.3050 c3        1 MOL     -0.228281
    165 C57        -3.7380   -5.1610   -0.1060 c         1 MOL      0.598672
    166 O25        -2.7010   -5.4130   -0.7760 o         1 MOL     -0.713650
    167 O26        -3.6600   -4.3460    0.8230 o         1 MOL     -0.713650
    168 H71        -7.1730   -3.8130   -2.8620 hn        1 MOL      0.291502
    169 H72        -6.1080   -3.2390   -0.3850 h1        1 MOL      0.044387
    170 H73        -5.3360   -4.8700   -2.1630 hc        1 MOL      0.018435
    171 H74        -6.6100   -5.9190   -1.7650 hc        1 MOL      0.018435
    172 H75        -4.7450   -6.9200   -0.7250 hc        1 MOL      0.027412
    173 H76        -5.3950   -6.1470    0.7130 hc        1 MOL      0.027412
    174 N15        -7.5670   -4.6810    1.5950 n         1 MOL     -0.238300
    175 C58        -8.5120   -5.2000    2.6150 c3        1 MOL     -0.068003
    176 H77        -8.0230   -5.9790    3.1990 h1        1 MOL      0.058106
    177 H78        -8.8160   -4.3880    3.2760 h1        1 MOL      0.058106
    178 H79        -9.3900   -5.6140    2.1210 h1        1 MOL      0.058106
    179 H80        -6.6580   -4.3920    1.9350 hn        1 MOL      0.257048
    180 Ca1        -1.1200   -4.1960    1.2800 Ca        1 MOL      1.667630
    181 O27         0.3140   -4.3000   -1.1610 oh        1 MOL     -0.838105
    182 H81         0.8440   -5.0830   -1.3230 ho        1 MOL      0.394434
    183 H82         0.9140   -3.5740   -1.2960 ho        1 MOL      0.394434
    184 O28        -1.6800   -2.2030   -0.6600 oh        1 MOL     -0.838105
    185 H83        -1.4260   -1.2840   -0.6800 ho        1 MOL      0.394434
    186 H84        -1.8060   -2.4370   -1.5830 ho        1 MOL      0.394434
    187 O29        -0.8590   -4.4660    3.9300 oh        1 MOL     -0.838105
    188 H85         0.0090   -4.3750    4.2980 ho        1 MOL      0.394434
    189 H86        -1.4270   -4.6480    4.6880 ho        1 MOL      0.394434
    190 O30         0.6430   -2.1260    1.5960 oh        1 MOL     -0.838105
    191 H87         1.1350   -1.4070    1.1920 ho        1 MOL      0.394434
    192 H88         0.9270   -2.1310    2.5020 ho        1 MOL      0.394434
@<TRIPOS>BOND
     1    1    2 1   
     2    1    4 1   
     3    1    5 1   
     4    1    6 1   
     5    2    3 2   
     6    2    7 1   
     7    7    8 1   
     8    7   15 1   
     9    8    9 1   
    10    8   11 1   
    11    8   16 1   
    12    9   10 2   
    13    9   19 1   
    14   11   12 1   
    15   11   17 1   
    16   11   18 1   
    17   12   13 1   
    18   12   14 1   
    19   19   20 1   
    20   19   27 1   
    21   20   21 1   
    22   20   23 1   
    23   20   28 1   
    24   21   22 2   
    25   21   38 1   
    26   23   24 1   
    27   23   25 1   
    28   23   29 1   
    29   24   26 1   
    30   24   30 1   
    31   24   31 1   
    32   25   32 1   
    33   25   33 1   
    34   25   34 1   
    35   26   35 1   
    36   26   36 1   
    37   26   37 1   
    38   38   39 1   
    39   38   46 1   
    40   39   40 1   
    41   39   42 1   
    42   39   47 1   
    43   40   41 2   
    44   40   50 1   
    45   42   43 1   
    46   42   48 1   
    47   42   49 1   
    48   43   44 1   
    49   43   45 1   
    50   50   51 1   
    51   50   54 1   
    52   51   52 1   
    53   51   55 1   
    54   51   56 1   
    55   52   53 2   
    56   52   57 1   
    57   57   58 1   
    58   57   65 1   
    59   58   59 1   
    60   58   61 1   
    61   58   66 1   
    62   59   60 2   
    63   59   69 1   
    64   61   62 1   
    65   61   67 1   
    66   61   68 1   
    67   62   63 1   
    68   62   64 1   
    69   69   70 1   
    70   69   73 1   
    71   70   71 1   
    72   70   74 1   
    73   70   75 1   
    74   71   72 2   
    75   71   76 1   
    76   76   77 1   
    77   76   85 1   
    78   77   78 1   
    79   77   80 1   
    80   77   86 1   
    81   78   79 2   
    82   78   93 1   
    83   80   81 1   
    84   80   87 1   
    85   80   88 1   
    86   81   82 1   
    87   81   89 1   
    88   81   90 1   
    89   82   83 1   
    90   82   84 2   
    91   83   91 1   
    92   83   92 1   
    93   93   94 1   
    94   93  100 1   
    95   94   95 1   
    96   94   97 1   
    97   94  101 1   
    98   95   96 2   
    99   95  109 1   
   100   97   98 1   
   101   97   99 1   
   102   97  102 1   
   103   98  103 1   
   104   98  104 1   
   105   98  105 1   
   106   99  106 1   
   107   99  107 1   
   108   99  108 1   
   109  109  110 1   
   110  109  117 1   
   111  110  111 1   
   112  110  113 1   
   113  110  118 1   
   114  111  112 2   
   115  111  123 1   
   116  113  114 1   
   117  113  119 1   
   118  113  120 1   
   119  114  115 1   
   120  114  116 2   
   121  115  121 1   
   122  115  122 1   
   123  123  124 1   
   124  123  135 1   
   125  124  125 1   
   126  124  127 1   
   127  124  136 1   
   128  125  126 2   
   129  125  144 1   
   130  127  128 1   
   131  127  137 1   
   132  127  138 1   
   133  128  129 ar  
   134  128  130 ar  
   135  129  131 ar  
   136  129  139 1   
   137  130  132 ar  
   138  130  140 1   
   139  131  133 ar  
   140  131  141 1   
   141  132  133 ar  
   142  132  142 1   
   143  133  134 1   
   144  134  143 1   
   145  144  145 1   
   146  144  153 1   
   147  145  146 1   
   148  145  148 1   
   149  145  154 1   
   150  146  147 2   
   151  146  159 1   
   152  148  149 1   
   153  148  155 1   
   154  148  156 1   
   155  149  150 1   
   156  149  157 1   
   157  149  158 1   
   158  150  151 1   
   159  150  152 1   
   160  159  160 1   
   161  159  168 1   
   162  160  161 1   
   163  160  163 1   
   164  160  169 1   
   165  161  162 2   
   166  161  174 1   
   167  163  164 1   
   168  163  170 1   
   169  163  171 1   
   170  164  165 1   
   171  164  172 1   
   172  164  173 1   
   173  165  166 1   
   174  165  167 1   
   175  174  175 1   
   176  174  179 1   
   177  175  176 1   
   178  175  177 1   
   179  175  178 1   
   180  181  182 1   
   181  181  183 1   
   182  184  185 1   
   183  184  186 1   
   184  187  188 1   
   185  187  189 1   
   186  190  191 1   
   187  190  192 1   
@<TRIPOS>SUBSTRUCTURE
     1 MOL         1 TEMP              0 ****  ****    0 ROOT
