@<TRIPOS>MOLECULE
MOL
  192   187     1     0     0
SMALL
resp


@<TRIPOS>ATOM
      1 C1         -4.7720   -3.8650    3.5660 c3        1 MOL      0.294955
      2 C2         -3.6120   -3.5290    2.6020 c         1 MOL      0.516878
      3 O1         -3.2710   -2.3410    2.5850 o         1 MOL     -0.513743
      4 H1         -5.5650   -4.3720    3.0170 hc        1 MOL     -0.106740
      5 H2         -4.4080   -4.5150    4.3620 hc        1 MOL     -0.106740
      6 H3         -5.1630   -2.9440    3.9990 hc        1 MOL     -0.106740
      7 N1         -3.0590   -4.5380    1.9150 n         1 MOL     -0.515368
      8 C3         -2.1650   -4.3860    0.7200 c3        1 MOL     -0.177603
      9 C4         -0.7310   -3.9240    0.9640 c         1 MOL      0.741401
     10 O2          0.0340   -3.9800    0.0070 o         1 MOL     -0.580212
     11 C5         -2.7430   -3.4560   -0.3500 c3        1 MOL     -0.182156
     12 C6         -4.1620   -3.7310   -0.6690 c         1 MOL      0.482005
     13 O3         -4.4520   -4.6670   -1.4470 o         1 MOL     -0.624459
     14 O4         -5.0690   -3.0850   -0.1430 o         1 MOL     -0.624459
     15 H4         -3.4690   -5.4590    1.9620 hn        1 MOL      0.318649
     16 H5         -2.1240   -5.3740    0.2490 h1        1 MOL      0.139260
     17 H6         -2.1830   -3.6020   -1.2600 hc        1 MOL      0.125676
     18 H7         -2.6530   -2.3910   -0.1000 hc        1 MOL      0.125676
     19 N2         -0.3150   -3.5970    2.1960 n         1 MOL     -0.506135
     20 C7          1.0750   -3.1450    2.5040 c3        1 MOL     -0.204265
     21 C8          1.9940   -4.3350    2.6230 c         1 MOL      0.645097
     22 O5          1.6470   -5.4710    2.9970 o         1 MOL     -0.594611
     23 C9          1.1190   -2.2210    3.7860 c3        1 MOL      0.010259
     24 C10         0.6040   -2.9190    5.0860 c3        1 MOL     -0.005518
     25 C11         0.4690   -0.9050    3.4900 c3        1 MOL     -0.152806
     26 C12         0.8260   -2.0500    6.3420 c3        1 MOL     -0.098663
     27 H8         -1.0490   -3.5670    2.8910 hn        1 MOL      0.297514
     28 H9          1.4120   -2.5450    1.6540 h1        1 MOL      0.187616
     29 H10         2.1760   -2.0280    4.0100 hc        1 MOL      0.123561
     30 H11         1.3230   -3.7200    5.2400 hc        1 MOL      0.033689
     31 H12        -0.3950   -3.3650    5.0620 hc        1 MOL      0.033689
     32 H13        -0.6150   -0.8740    3.4710 hc        1 MOL      0.058095
     33 H14         0.6450   -0.1990    4.2950 hc        1 MOL      0.058095
     34 H15         0.8070   -0.4150    2.5730 hc        1 MOL      0.058095
     35 H16         1.8060   -1.5830    6.4040 hc        1 MOL      0.016239
     36 H17         0.0580   -1.2860    6.4690 hc        1 MOL      0.016239
     37 H18         0.7440   -2.7070    7.2110 hc        1 MOL      0.016239
     38 N3          3.2490   -4.2770    2.1130 n         1 MOL     -0.417542
     39 C13         3.9220   -3.0190    1.6090 c3        1 MOL     -0.310636
     40 C14         4.3560   -3.0180    0.1330 c         1 MOL      0.452000
     41 O6          4.9160   -2.0490   -0.3150 o         1 MOL     -0.417435
     42 C15         5.2130   -2.6880    2.4150 c3        1 MOL     -0.106089
     43 C16         6.0660   -3.9130    2.7560 c         1 MOL      0.727498
     44 O7          7.1250   -4.1320    2.1740 o         1 MOL     -0.678388
     45 O8          5.7090   -4.5860    3.7080 o         1 MOL     -0.678388
     46 H19         3.8840   -5.0660    2.1400 hn        1 MOL      0.313004
     47 H20         3.2530   -2.1550    1.6660 h1        1 MOL      0.156671
     48 H21         4.8240   -2.3640    3.3810 hc        1 MOL      0.046319
     49 H22         5.7890   -1.8890    1.9680 hc        1 MOL      0.046319
     50 N4          4.2430   -4.0730   -0.6930 n         1 MOL     -0.198695
     51 C17         4.6060   -4.1830   -2.1400 c3        1 MOL     -0.212037
     52 C18         6.0170   -3.7560   -2.4260 c         1 MOL      0.609437
     53 O9          6.9530   -4.5340   -2.3000 o         1 MOL     -0.563299
     54 H23         3.7180   -4.8510   -0.3120 hn        1 MOL      0.238486
     55 H24         3.8700   -3.6890   -2.7890 h1        1 MOL      0.094764
     56 H25         4.5630   -5.2540   -2.3310 h1        1 MOL      0.094764
     57 N5          6.1330   -2.5090   -2.9190 n         1 MOL     -0.590094
     58 C19         7.4630   -1.8760   -3.0750 c3        1 MOL      0.329040
     59 C20         8.1340   -1.1840   -1.8780 c         1 MOL      0.268906
     60 O10         9.3370   -0.9200   -1.9470 o         1 MOL     -0.569747
     61 C21         7.3840   -0.8200   -4.1360 c3        1 MOL     -0.372628
     62 C22         6.3350    0.2580   -3.9800 c         1 MOL      0.792471
     63 O11         6.2020    0.9860   -4.9740 o         1 MOL     -0.696262
     64 O12         5.5480    0.3930   -3.0120 o         1 MOL     -0.696262
     65 H26         5.2890   -1.9700   -2.7780 hn        1 MOL      0.334188
     66 H27         8.1270   -2.6480   -3.4670 h1        1 MOL      0.051015
     67 H28         7.3200   -1.3990   -5.0580 hc        1 MOL      0.065254
     68 H29         8.3700   -0.3610   -4.2350 hc        1 MOL      0.065254
     69 N6          7.4870   -1.0070   -0.7530 n         1 MOL      0.034687
     70 C23         7.9140   -0.5050    0.5570 c3        1 MOL     -0.143523
     71 C24         7.7110    0.9880    0.7820 c         1 MOL      0.400615
     72 O13         8.0510    1.5310    1.8800 o         1 MOL     -0.556339
     73 H30         6.5010   -1.2390   -0.7140 hn        1 MOL      0.071584
     74 H31         8.9990   -0.6330    0.5370 h1        1 MOL      0.099250
     75 H32         7.6670   -1.0750    1.4460 h1        1 MOL      0.099250
     76 N7          7.0800    1.6670   -0.1820 n         1 MOL     -0.012608
     77 C25         6.7980    3.0790   -0.1830 c3        1 MOL      0.026471
     78 C26         5.7700    3.5250    0.9030 c         1 MOL      0.460027
     79 O14         5.7750    4.6390    1.4260 o         1 MOL     -0.518130
     80 C27         8.0300    4.0380   -0.2930 c3        1 MOL      0.035313
     81 C28         9.0040    3.7560   -1.4680 c3        1 MOL     -0.079069
     82 C29        10.0540    4.8590   -1.6550 c         1 MOL      0.601695
     83 N8         10.8670    4.6610   -2.6670 n         1 MOL     -0.769428
     84 O15        10.1700    5.8550   -0.9020 o         1 MOL     -0.567757
     85 H33         6.8090    1.1670   -1.0070 hn        1 MOL      0.079188
     86 H34         6.2260    3.2850   -1.0890 h1        1 MOL      0.049799
     87 H35         8.5250    3.8340    0.6590 hc        1 MOL      0.006295
     88 H36         7.7310    5.0780   -0.2250 hc        1 MOL      0.006295
     89 H37         8.4600    3.6970   -2.4120 hc        1 MOL      0.031082
     90 H38         9.5080    2.7880   -1.3880 hc        1 MOL      0.031082
     91 H39        10.7580    3.7790   -3.1510 hn        1 MOL      0.349579
     92 H40        11.7330    5.1670   -2.5510 hn        1 MOL      0.349579
     93 N9          4.7950    2.6800    1.3550 n         1 MOL     -0.308372
     94 C30         3.7460    2.9480    2.3440 c3        1 MOL     -0.120424
     95 C31         2.3210    2.9000    1.7940 c         1 MOL      0.578187
     96 O16         1.3860    3.3530    2.4590 o         1 MOL     -0.570749
     97 C32         3.8800    1.9880    3.6220 c3        1 MOL      0.274136
     98 C33         4.0220    0.5390    3.2540 c3        1 MOL     -0.374347
     99 C34         5.0040    2.3440    4.5270 c3        1 MOL     -0.374347
    100 H41         4.9780    1.7820    0.9220 hn        1 MOL      0.173675
    101 H42         3.8380    4.0050    2.6050 h1        1 MOL      0.137782
    102 H43         2.9810    2.1140    4.2350 hc        1 MOL     -0.018960
    103 H44         3.7150   -0.0540    4.1100 hc        1 MOL      0.093730
    104 H45         3.3080    0.2370    2.4840 hc        1 MOL      0.093730
    105 H46         5.0190    0.2330    2.9600 hc        1 MOL      0.093730
    106 H47         4.8470    3.3810    4.8080 hc        1 MOL      0.093730
    107 H48         5.0130    1.6820    5.3910 hc        1 MOL      0.093730
    108 H49         5.9090    2.3120    3.9220 hc        1 MOL      0.093730
    109 N10         2.1160    2.3470    0.5970 n         1 MOL     -0.489682
    110 C35         0.7840    2.1620    0.0480 c3        1 MOL      0.050945
    111 C36         0.0120    3.3890   -0.4010 c         1 MOL      0.735204
    112 O17         0.6020    4.3890   -0.8040 o         1 MOL     -0.564454
    113 C37         0.7150    1.0980   -1.0830 c3        1 MOL     -0.220976
    114 C38         1.0170   -0.3220   -0.6580 c         1 MOL      0.654035
    115 N11         0.2060   -0.8650    0.2180 n         1 MOL     -0.753794
    116 O18         1.9050   -1.0640   -1.1100 o         1 MOL     -0.548294
    117 H50         2.9640    1.9650    0.2220 hn        1 MOL      0.287661
    118 H51         0.2430    1.6780    0.8660 h1        1 MOL      0.020218
    119 H52         1.4250    1.3700   -1.8660 hc        1 MOL      0.095862
    120 H53        -0.3150    1.0350   -1.4570 hc        1 MOL      0.095862
    121 H54        -0.5860   -0.2870    0.4410 hn        1 MOL      0.333110
    122 H55         0.3070   -1.8570    0.4000 hn        1 MOL      0.333110
    123 N12        -1.3060    3.2640   -0.3620 n         1 MOL     -0.593436
    124 C39        -2.2740    4.2930   -0.7400 c3        1 MOL      0.123337
    125 C40        -3.6020    3.9190   -0.1230 c         1 MOL      0.562781
    126 O19        -3.7630    2.7920    0.4180 o         1 MOL     -0.585328
    127 C41        -2.3630    4.4240   -2.2770 c3        1 MOL     -0.171287
    128 C42        -2.2860    3.0670   -2.9860 ca        1 MOL      0.021487
    129 C43        -3.4040    2.2290   -2.9710 ca        1 MOL     -0.140348
    130 C44        -1.1240    2.6510   -3.6620 ca        1 MOL     -0.140348
    131 C45        -3.3250    0.8920   -3.5110 ca        1 MOL     -0.281889
    132 C46        -0.9640    1.3800   -4.1960 ca        1 MOL     -0.281889
    133 C47        -2.0530    0.5090   -4.1470 ca        1 MOL      0.361295
    134 O20        -1.9890   -0.7270   -4.6790 oh        1 MOL     -0.526986
    135 H56        -1.7400    2.3650   -0.1950 hn        1 MOL      0.308240
    136 H57        -1.9360    5.2700   -0.3750 h1        1 MOL      0.084100
    137 H58        -1.5980    5.0750   -2.6890 hc        1 MOL      0.069482
    138 H59        -3.2970    4.9350   -2.5000 hc        1 MOL      0.069482
    139 H60        -4.3550    2.6010   -2.6180 ha        1 MOL      0.147058
    140 H61        -0.2360    3.2580   -3.5810 ha        1 MOL      0.147058
    141 H62        -4.1810    0.2430   -3.6490 ha        1 MOL      0.162752
    142 H63         0.0310    1.0120   -4.4000 ha        1 MOL      0.162752
    143 H64        -2.6450   -1.3110   -4.2940 ho        1 MOL      0.391206
    144 N13        -4.6340    4.7130   -0.1530 n         1 MOL     -0.638604
    145 C48        -6.0320    4.4050    0.2590 c3        1 MOL      0.746990
    146 C49        -6.8530    4.0000   -0.9750 c         1 MOL      0.155789
    147 O21        -7.0950    4.7480   -1.9040 o         1 MOL     -0.539687
    148 C50        -6.7290    5.5990    0.9010 c3        1 MOL     -0.163298
    149 C51        -6.1550    5.9810    2.2870 c3        1 MOL     -0.012460
    150 C52        -6.8850    7.1430    2.9660 c         1 MOL      0.673001
    151 O22        -6.4150    7.5520    4.0320 o         1 MOL     -0.696571
    152 O23        -7.8180    7.6920    2.3650 o         1 MOL     -0.696571
    153 H65        -4.4190    5.6830   -0.3650 hn        1 MOL      0.273900
    154 H66        -6.0540    3.6230    1.0190 h1        1 MOL     -0.092484
    155 H67        -7.7250    5.2020    1.1140 hc        1 MOL      0.031835
    156 H68        -6.7950    6.5070    0.2930 hc        1 MOL      0.031835
    157 H69        -5.0870    6.2160    2.2520 hc        1 MOL     -0.027733
    158 H70        -6.1210    5.0910    2.9150 hc        1 MOL     -0.027733
    159 N14        -7.2500    2.7050   -1.0930 n         1 MOL      0.094379
    160 C53        -7.0980    1.5740   -0.2490 c3        1 MOL     -0.841450
    161 C54        -8.0470    1.6620    0.9790 c         1 MOL      0.449937
    162 O24        -9.1320    2.2090    0.8330 o         1 MOL     -0.499676
    163 C55        -7.5050    0.3770   -1.0860 c3        1 MOL      0.202870
    164 C56        -6.4540    0.1210   -2.1480 c3        1 MOL     -0.338819
    165 C57        -6.8590   -1.0850   -2.9740 c         1 MOL      0.719283
    166 O25        -6.6420   -2.1850   -2.4830 o         1 MOL     -0.670487
    167 O26        -7.4440   -0.8910   -4.0500 o         1 MOL     -0.670487
    168 H71        -7.8900    2.5190   -1.8520 hn        1 MOL      0.228346
    169 H72        -6.0260    1.5210   -0.0550 h1        1 MOL      0.270881
    170 H73        -8.4360    0.4950   -1.6220 hc        1 MOL      0.068016
    171 H74        -7.4730   -0.4900   -0.4300 hc        1 MOL      0.068016
    172 H75        -5.4820   -0.1240   -1.7100 hc        1 MOL      0.060313
    173 H76        -6.4170    1.0260   -2.7530 hc        1 MOL      0.060313
    174 N15        -7.5640    1.1090    2.0980 n         1 MOL     -0.079893
    175 C58        -8.0810    1.1860    3.4790 c3        1 MOL     -0.112105
    176 H77        -8.9450    0.5290    3.5800 h1        1 MOL      0.060547
    177 H78        -7.3040    0.8720    4.1760 h1        1 MOL      0.060547
    178 H79        -8.3760    2.2110    3.7010 h1        1 MOL      0.060547
    179 H80        -6.7320    0.5660    1.9380 hn        1 MOL      0.226799
    180 Ca1        -7.1780   -4.3290   -1.1160 Ca        1 MOL      1.561672
    181 O27        -8.1820   -2.6670    0.9830 oh        1 MOL     -0.908238
    182 H81        -7.4750   -2.7290    1.6190 ho        1 MOL      0.412046
    183 H82        -8.9810   -2.5740    1.5230 ho        1 MOL      0.412046
    184 O28        -6.2840   -6.9260   -1.9040 oh        1 MOL     -0.908238
    185 H83        -6.5440   -7.7070   -1.4100 ho        1 MOL      0.412046
    186 H84        -6.2830   -7.2070   -2.8180 ho        1 MOL      0.412046
    187 O29        -9.2290   -2.7950   -2.2520 oh        1 MOL     -0.908238
    188 H85       -10.1560   -2.7220   -2.4890 ho        1 MOL      0.412046
    189 H86        -8.7590   -2.3950   -2.9940 ho        1 MOL      0.412046
    190 O30        -7.6010   -4.7340   -3.7830 oh        1 MOL     -0.908238
    191 H87        -7.1830   -5.5200   -4.1150 ho        1 MOL      0.412046
    192 H88        -7.3810   -4.0480   -4.4240 ho        1 MOL      0.412046
@<TRIPOS>BOND
     1    1    2 1   
     2    1    4 1   
     3    1    5 1   
     4    1    6 1   
     5    2    3 2   
     6    2    7 1   
     7    7    8 1   
     8    7   15 1   
     9    8    9 1   
    10    8   11 1   
    11    8   16 1   
    12    9   10 2   
    13    9   19 1   
    14   11   12 1   
    15   11   17 1   
    16   11   18 1   
    17   12   13 1   
    18   12   14 1   
    19   19   20 1   
    20   19   27 1   
    21   20   21 1   
    22   20   23 1   
    23   20   28 1   
    24   21   22 2   
    25   21   38 1   
    26   23   24 1   
    27   23   25 1   
    28   23   29 1   
    29   24   26 1   
    30   24   30 1   
    31   24   31 1   
    32   25   32 1   
    33   25   33 1   
    34   25   34 1   
    35   26   35 1   
    36   26   36 1   
    37   26   37 1   
    38   38   39 1   
    39   38   46 1   
    40   39   40 1   
    41   39   42 1   
    42   39   47 1   
    43   40   41 2   
    44   40   50 1   
    45   42   43 1   
    46   42   48 1   
    47   42   49 1   
    48   43   44 1   
    49   43   45 1   
    50   50   51 1   
    51   50   54 1   
    52   51   52 1   
    53   51   55 1   
    54   51   56 1   
    55   52   53 2   
    56   52   57 1   
    57   57   58 1   
    58   57   65 1   
    59   58   59 1   
    60   58   61 1   
    61   58   66 1   
    62   59   60 2   
    63   59   69 1   
    64   61   62 1   
    65   61   67 1   
    66   61   68 1   
    67   62   63 1   
    68   62   64 1   
    69   69   70 1   
    70   69   73 1   
    71   70   71 1   
    72   70   74 1   
    73   70   75 1   
    74   71   72 2   
    75   71   76 1   
    76   76   77 1   
    77   76   85 1   
    78   77   78 1   
    79   77   80 1   
    80   77   86 1   
    81   78   79 2   
    82   78   93 1   
    83   80   81 1   
    84   80   87 1   
    85   80   88 1   
    86   81   82 1   
    87   81   89 1   
    88   81   90 1   
    89   82   83 1   
    90   82   84 2   
    91   83   91 1   
    92   83   92 1   
    93   93   94 1   
    94   93  100 1   
    95   94   95 1   
    96   94   97 1   
    97   94  101 1   
    98   95   96 2   
    99   95  109 1   
   100   97   98 1   
   101   97   99 1   
   102   97  102 1   
   103   98  103 1   
   104   98  104 1   
   105   98  105 1   
   106   99  106 1   
   107   99  107 1   
   108   99  108 1   
   109  109  110 1   
   110  109  117 1   
   111  110  111 1   
   112  110  113 1   
   113  110  118 1   
   114  111  112 2   
   115  111  123 1   
   116  113  114 1   
   117  113  119 1   
   118  113  120 1   
   119  114  115 1   
   120  114  116 2   
   121  115  121 1   
   122  115  122 1   
   123  123  124 1   
   124  123  135 1   
   125  124  125 1   
   126  124  127 1   
   127  124  136 1   
   128  125  126 2   
   129  125  144 1   
   130  127  128 1   
   131  127  137 1   
   132  127  138 1   
   133  128  129 ar  
   134  128  130 ar  
   135  129  131 ar  
   136  129  139 1   
   137  130  132 ar  
   138  130  140 1   
   139  131  133 ar  
   140  131  141 1   
   141  132  133 ar  
   142  132  142 1   
   143  133  134 1   
   144  134  143 1   
   145  144  145 1   
   146  144  153 1   
   147  145  146 1   
   148  145  148 1   
   149  145  154 1   
   150  146  147 2   
   151  146  159 1   
   152  148  149 1   
   153  148  155 1   
   154  148  156 1   
   155  149  150 1   
   156  149  157 1   
   157  149  158 1   
   158  150  151 1   
   159  150  152 1   
   160  159  160 1   
   161  159  168 1   
   162  160  161 1   
   163  160  163 1   
   164  160  169 1   
   165  161  162 2   
   166  161  174 1   
   167  163  164 1   
   168  163  170 1   
   169  163  171 1   
   170  164  165 1   
   171  164  172 1   
   172  164  173 1   
   173  165  166 1   
   174  165  167 1   
   175  174  175 1   
   176  174  179 1   
   177  175  176 1   
   178  175  177 1   
   179  175  178 1   
   180  181  182 1   
   181  181  183 1   
   182  184  185 1   
   183  184  186 1   
   184  187  188 1   
   185  187  189 1   
   186  190  191 1   
   187  190  192 1   
@<TRIPOS>SUBSTRUCTURE
     1 MOL         1 TEMP              0 ****  ****    0 ROOT
