@<TRIPOS>MOLECULE
MOL
  192   187     1     0     0
SMALL
resp


@<TRIPOS>ATOM
      1 C1          4.0660    3.9500   -3.6540 c3        1 MOL     -0.334380
      2 C2          4.9480    3.3710   -2.4960 c         1 MOL      0.729488
      3 O1          4.3850    3.2560   -1.4110 o         1 MOL     -0.532820
      4 H1          4.4140    4.9510   -3.9090 hc        1 MOL      0.077396
      5 H2          4.1460    3.3050   -4.5300 hc        1 MOL      0.077396
      6 H3          3.0260    3.9980   -3.3310 hc        1 MOL      0.077396
      7 N1          6.2210    2.9850   -2.7450 n         1 MOL     -0.648610
      8 C3          6.9700    1.9180   -2.0410 c3        1 MOL      0.093296
      9 C4          6.0330    0.7760   -1.7260 c         1 MOL      0.672390
     10 O2          5.6430    0.4870   -0.5740 o         1 MOL     -0.736291
     11 C5          7.7630    2.4780   -0.8920 c3        1 MOL     -0.082172
     12 C6          7.0480    3.5520   -0.0610 c         1 MOL      0.777069
     13 O3          6.3790    3.1910    0.9650 o         1 MOL     -0.735823
     14 O4          7.3450    4.7050   -0.2300 o         1 MOL     -0.735823
     15 H4          6.6310    3.1770   -3.6390 hn        1 MOL      0.317989
     16 H5          7.5910    1.5210   -2.8450 h1        1 MOL      0.035224
     17 H6          8.7140    2.8580   -1.2720 hc        1 MOL      0.027846
     18 H7          8.0660    1.7080   -0.1850 hc        1 MOL      0.027846
     19 N2          5.7170   -0.0410   -2.7120 n         1 MOL     -0.545383
     20 C7          4.8440   -1.2040   -2.9090 c3        1 MOL      0.167383
     21 C8          5.3940   -2.4600   -2.1710 c         1 MOL      0.399418
     22 O5          5.4170   -3.4970   -2.8510 o         1 MOL     -0.562621
     23 C9          3.3450   -0.9470   -2.6360 c3        1 MOL      0.166195
     24 C10         2.3670   -2.0720   -3.1050 c3        1 MOL     -0.341134
     25 C11         2.8300    0.4360   -3.1060 c3        1 MOL      0.023718
     26 C12         2.3590   -2.3010   -4.6320 c3        1 MOL     -0.338595
     27 H8          5.9750    0.3390   -3.6130 hn        1 MOL      0.260350
     28 H9          4.9070   -1.3880   -3.9890 h1        1 MOL      0.033461
     29 H10         3.2990   -0.8230   -1.5550 hc        1 MOL     -0.227477
     30 H11         1.3260   -1.7950   -2.9130 hc        1 MOL      0.223162
     31 H12         2.6520   -3.0360   -2.6870 hc        1 MOL      0.223162
     32 H13         2.9070    0.5790   -4.1820 hc        1 MOL     -0.012431
     33 H14         1.7810    0.5380   -2.8260 hc        1 MOL     -0.012431
     34 H15         3.3640    1.2850   -2.6720 hc        1 MOL     -0.012431
     35 H16         2.1760   -1.3850   -5.2040 hc        1 MOL      0.075681
     36 H17         3.3310   -2.7590   -4.8160 hc        1 MOL      0.075681
     37 H18         1.5610   -2.9870   -4.9090 hc        1 MOL      0.075681
     38 N3          5.7940   -2.3020   -0.9160 n         1 MOL     -0.009694
     39 C13         6.5320   -3.2480   -0.1440 c3        1 MOL      0.060196
     40 C14         5.8570   -4.6050    0.0970 c         1 MOL      0.502721
     41 O6          6.5480   -5.6240    0.1440 o         1 MOL     -0.599039
     42 C15         6.9650   -2.5530    1.2130 c3        1 MOL     -0.191584
     43 C16         7.9990   -1.4770    0.8650 c         1 MOL      0.724455
     44 O7          8.7950   -1.5230   -0.1320 o         1 MOL     -0.697869
     45 O8          8.0810   -0.5260    1.6590 o         1 MOL     -0.697869
     46 H19         5.6720   -1.3720   -0.5490 hn        1 MOL      0.050428
     47 H20         7.4920   -3.4310   -0.6230 h1        1 MOL      0.002277
     48 H21         7.3830   -3.2710    1.9320 hc        1 MOL      0.052257
     49 H22         6.0790   -2.1390    1.7000 hc        1 MOL      0.052257
     50 N4          4.5970   -4.6730    0.4050 n         1 MOL     -0.425237
     51 C17         3.5240   -3.7320    0.4070 c3        1 MOL      0.126945
     52 C18         2.2600   -4.1860    1.0660 c         1 MOL      0.476851
     53 O9          1.7730   -5.2540    0.7110 o         1 MOL     -0.554266
     54 H23         4.3710   -5.5770    0.8070 hn        1 MOL      0.258445
     55 H24         3.2270   -3.5650   -0.6260 h1        1 MOL      0.003665
     56 H25         3.8860   -2.7890    0.8320 h1        1 MOL      0.003665
     57 N5          1.6270   -3.4490    2.0390 n         1 MOL     -0.458253
     58 C19         2.0810   -2.2160    2.5700 c3        1 MOL      0.506146
     59 C20         2.2010   -1.1030    1.5550 c         1 MOL      0.230542
     60 O10         3.2750   -0.5150    1.3090 o         1 MOL     -0.058848
     61 C21         3.3020   -2.3080    3.4860 c3        1 MOL     -0.586605
     62 C22         3.5640   -1.0540    4.3630 c         1 MOL      0.754439
     63 O11         4.7650   -0.8680    4.7420 o         1 MOL     -0.683978
     64 O12         2.6290   -0.2900    4.5670 o         1 MOL     -0.683978
     65 H26         0.8940   -3.9340    2.5350 hn        1 MOL      0.224996
     66 H27         1.2440   -1.9190    3.1990 h1        1 MOL      0.001335
     67 H28         4.2150   -2.5380    2.9420 hc        1 MOL      0.098351
     68 H29         3.1550   -3.2450    4.0310 hc        1 MOL      0.098351
     69 N6          1.1930   -0.7110    0.7610 n         1 MOL     -0.466961
     70 C23        -0.2090   -1.1360    0.7630 c3        1 MOL     -0.133199
     71 C24        -0.4990   -2.4900    0.2070 c         1 MOL      0.406266
     72 O13         0.2390   -3.1140   -0.5530 o         1 MOL     -0.506177
     73 H30         1.4680   -0.0780    0.0260 hn        1 MOL      0.381384
     74 H31        -0.7760   -0.3790    0.2300 h1        1 MOL      0.096340
     75 H32        -0.4530   -1.1420    1.8260 h1        1 MOL      0.096340
     76 N7         -1.6510   -3.0810    0.4880 n         1 MOL     -0.209683
     77 C25        -2.1480   -4.3090   -0.1010 c3        1 MOL     -0.129216
     78 C26        -2.7040   -4.1150   -1.5220 c         1 MOL      0.506927
     79 O14        -2.7560   -5.0400   -2.2640 o         1 MOL     -0.516229
     80 C27        -3.1820   -5.0520    0.7580 c3        1 MOL     -0.036860
     81 C28        -2.5590   -5.8060    2.0180 c3        1 MOL     -0.229243
     82 C29        -2.0660   -4.9230    3.1050 c         1 MOL      0.608408
     83 N8         -0.9330   -5.1410    3.7040 n         1 MOL     -0.736667
     84 O15        -2.7330   -3.9110    3.4100 o         1 MOL     -0.544325
     85 H33        -2.3670   -2.4950    0.8980 hn        1 MOL      0.217524
     86 H34        -1.3110   -4.9840   -0.2270 h1        1 MOL      0.174829
     87 H35        -3.6930   -5.8030    0.1550 hc        1 MOL      0.060050
     88 H36        -3.9670   -4.3430    1.0380 hc        1 MOL      0.060050
     89 H37        -1.7540   -6.4490    1.6550 hc        1 MOL      0.074667
     90 H38        -3.3260   -6.4730    2.4090 hc        1 MOL      0.074667
     91 H39        -0.3630   -5.9180    3.3860 hn        1 MOL      0.358133
     92 H40        -0.5170   -4.3800    4.2330 hn        1 MOL      0.358133
     93 N9         -3.1550   -2.9030   -1.8780 n         1 MOL     -0.383724
     94 C30        -3.6340   -2.5590   -3.2210 c3        1 MOL     -0.082867
     95 C31        -5.0230   -1.7820   -3.3060 c         1 MOL      0.527200
     96 O16        -5.4080   -1.5650   -4.3980 o         1 MOL     -0.546337
     97 C32        -2.6800   -1.8440   -4.1610 c3        1 MOL      0.218184
     98 C33        -1.4240   -2.7140   -4.4460 c3        1 MOL     -0.188060
     99 C34        -2.1450   -0.4540   -3.6730 c3        1 MOL     -0.188060
    100 H41        -2.9530   -2.1000   -1.3020 hn        1 MOL      0.220406
    101 H42        -3.7950   -3.5670   -3.6040 h1        1 MOL      0.111570
    102 H43        -3.1720   -1.8070   -5.1420 hc        1 MOL     -0.008289
    103 H44        -0.8890   -2.9800   -3.5400 hc        1 MOL      0.043903
    104 H45        -1.7480   -3.6490   -4.9020 hc        1 MOL      0.043903
    105 H46        -0.7980   -2.2520   -5.2130 hc        1 MOL      0.043903
    106 H47        -1.5120   -0.5140   -2.7840 hc        1 MOL      0.043903
    107 H48        -1.6210   -0.0020   -4.5170 hc        1 MOL      0.043903
    108 H49        -3.0190    0.1480   -3.4240 hc        1 MOL      0.043903
    109 N10        -5.7340   -1.4740   -2.2260 n         1 MOL     -0.381013
    110 C35        -7.0630   -0.8190   -2.4120 c3        1 MOL      0.092827
    111 C36        -7.2660    0.4950   -1.6640 c         1 MOL      0.446516
    112 O17        -8.2270    1.1370   -2.0420 o         1 MOL     -0.542447
    113 C37        -8.2000   -1.7730   -1.9900 c3        1 MOL     -0.191820
    114 C38        -8.2430   -3.2200   -2.4200 c         1 MOL      0.633268
    115 N11        -8.1390   -3.4720   -3.7040 n         1 MOL     -0.797227
    116 O18        -8.1840   -4.1200   -1.6280 o         1 MOL     -0.551086
    117 H50        -5.5350   -1.7910   -1.2900 hn        1 MOL      0.280776
    118 H51        -7.2140   -0.6210   -3.4790 h1        1 MOL      0.080574
    119 H52        -9.1260   -1.3670   -2.4030 hc        1 MOL      0.051979
    120 H53        -8.2830   -1.8570   -0.9060 hc        1 MOL      0.051979
    121 H54        -8.1680   -2.7180   -4.3760 hn        1 MOL      0.366969
    122 H55        -8.0420   -4.4340   -4.0030 hn        1 MOL      0.366969
    123 N12        -6.4050    0.9240   -0.7490 n         1 MOL     -0.231122
    124 C39        -6.5290    2.2280   -0.0880 c3        1 MOL      0.042205
    125 C40        -5.1790    2.7380    0.4090 c         1 MOL      0.475487
    126 O19        -4.1430    2.0210    0.3790 o         1 MOL     -0.414507
    127 C41        -7.6390    2.0600    1.0270 c3        1 MOL     -0.032407
    128 C42        -7.4070    0.9580    2.0860 ca        1 MOL      0.170120
    129 C43        -8.5200    0.0750    2.2330 ca        1 MOL     -0.329185
    130 C44        -6.3130    0.9170    2.9750 ca        1 MOL     -0.329185
    131 C45        -8.4400   -0.8190    3.3590 ca        1 MOL     -0.075240
    132 C46        -6.2310   -0.0450    3.9390 ca        1 MOL     -0.075240
    133 C47        -7.3160   -0.8950    4.1600 ca        1 MOL      0.248782
    134 O20        -7.2570   -1.9540    5.0020 oh        1 MOL     -0.611095
    135 H56        -5.4890    0.5030   -0.6720 hn        1 MOL      0.131934
    136 H57        -6.9720    2.8950   -0.8220 h1        1 MOL      0.044550
    137 H58        -8.6640    2.0160    0.6380 hc        1 MOL      0.030131
    138 H59        -7.7110    2.9750    1.6020 hc        1 MOL      0.030131
    139 H60        -9.3310    0.0710    1.5160 ha        1 MOL      0.157965
    140 H61        -5.5120    1.6240    2.8290 ha        1 MOL      0.157965
    141 H62        -9.3110   -1.4210    3.5730 ha        1 MOL      0.100550
    142 H63        -5.4260   -0.1810    4.6380 ha        1 MOL      0.100550
    143 H64        -6.4770   -2.0100    5.5510 ho        1 MOL      0.464130
    144 N13        -5.0750    4.0010    0.8210 n         1 MOL     -0.561376
    145 C48        -3.8790    4.7720    1.2300 c3        1 MOL     -0.005924
    146 C49        -2.8960    5.0930    0.1530 c         1 MOL      0.499492
    147 O21        -2.3400    6.1820    0.2750 o         1 MOL     -0.545777
    148 C50        -3.0900    4.2330    2.4600 c3        1 MOL      0.170662
    149 C51        -3.9680    4.2080    3.7440 c3        1 MOL     -0.322850
    150 C52        -3.1200    3.7320    4.8680 c         1 MOL      0.659278
    151 O22        -3.0630    2.5440    5.2580 o         1 MOL     -0.692277
    152 O23        -2.2260    4.4820    5.4820 o         1 MOL     -0.692277
    153 H65        -5.9070    4.5780    0.7810 hn        1 MOL      0.321214
    154 H66        -4.3180    5.7270    1.5360 h1        1 MOL      0.085300
    155 H67        -2.2280    4.8660    2.6650 hc        1 MOL      0.022148
    156 H68        -2.6550    3.2530    2.2520 hc        1 MOL      0.022148
    157 H69        -4.8820    3.6660    3.5140 hc        1 MOL      0.043485
    158 H70        -4.2390    5.2470    3.9520 hc        1 MOL      0.043485
    159 N14        -2.6310    4.2950   -0.8810 n         1 MOL     -0.431156
    160 C53        -1.4260    4.2450   -1.6870 c3        1 MOL      0.012354
    161 C54        -1.6150    4.8690   -3.0570 c         1 MOL      0.492607
    162 O24        -0.7130    4.9130   -3.8950 o         1 MOL     -0.529566
    163 C55        -0.9780    2.7840   -1.9310 c3        1 MOL     -0.138899
    164 C56        -0.4140    2.0030   -0.7340 c3        1 MOL      0.254183
    165 C57         0.8950    2.5440   -0.1290 c         1 MOL      0.650573
    166 O25         1.9310    1.8700   -0.3150 o         1 MOL     -0.663410
    167 O26         0.9830    3.6000    0.5780 o         1 MOL     -0.663410
    168 H71        -3.1480    3.4270   -0.8830 hn        1 MOL      0.217597
    169 H72        -0.5620    4.6860   -1.2050 h1        1 MOL      0.136479
    170 H73        -0.1620    2.8230   -2.6550 hc        1 MOL      0.027245
    171 H74        -1.8830    2.3110   -2.2840 hc        1 MOL      0.027245
    172 H75        -0.2150    1.0030   -1.1240 hc        1 MOL     -0.082123
    173 H76        -1.1430    1.8410    0.0590 hc        1 MOL     -0.082123
    174 N15        -2.8180    5.3520   -3.3630 n         1 MOL     -0.279439
    175 C58        -3.1360    6.2130   -4.5020 c3        1 MOL     -0.250414
    176 H77        -2.6980    7.1980   -4.3460 h1        1 MOL      0.104168
    177 H78        -2.7300    5.7760   -5.4140 h1        1 MOL      0.104168
    178 H79        -4.2190    6.3080   -4.5950 h1        1 MOL      0.104168
    179 H80        -3.5170    5.3460   -2.6410 hn        1 MOL      0.242882
    180 Ca1         4.1990    2.0240    1.0860 Ca        1 MOL      1.671553
    181 O27         5.7590    0.3800    2.6700 oh        1 MOL     -0.841989
    182 H81         5.5230   -0.1420    3.4390 ho        1 MOL      0.395406
    183 H82         6.6040    0.0320    2.3970 ho        1 MOL      0.395406
    184 O28         2.2450    1.7740    2.8490 oh        1 MOL     -0.841989
    185 H83         1.3680    2.1470    2.8550 ho        1 MOL      0.395406
    186 H84         2.2840    1.2380    3.6430 ho        1 MOL      0.395406
    187 O29         4.6260    3.3700    3.4940 oh        1 MOL     -0.841989
    188 H85         5.3700    3.9240    3.2400 ho        1 MOL      0.395406
    189 H86         4.3330    3.7280    4.3270 ho        1 MOL      0.395406
    190 O30         3.3920    4.5680    1.1650 oh        1 MOL     -0.841989
    191 H87         2.4870    4.3230    0.9850 ho        1 MOL      0.395406
    192 H88         3.3360    5.2000    1.8820 ho        1 MOL      0.395406
@<TRIPOS>BOND
     1    1    2 1   
     2    1    4 1   
     3    1    5 1   
     4    1    6 1   
     5    2    3 2   
     6    2    7 1   
     7    7    8 1   
     8    7   15 1   
     9    8    9 1   
    10    8   11 1   
    11    8   16 1   
    12    9   10 2   
    13    9   19 1   
    14   11   12 1   
    15   11   17 1   
    16   11   18 1   
    17   12   13 1   
    18   12   14 1   
    19   19   20 1   
    20   19   27 1   
    21   20   21 1   
    22   20   23 1   
    23   20   28 1   
    24   21   22 2   
    25   21   38 1   
    26   23   24 1   
    27   23   25 1   
    28   23   29 1   
    29   24   26 1   
    30   24   30 1   
    31   24   31 1   
    32   25   32 1   
    33   25   33 1   
    34   25   34 1   
    35   26   35 1   
    36   26   36 1   
    37   26   37 1   
    38   38   39 1   
    39   38   46 1   
    40   39   40 1   
    41   39   42 1   
    42   39   47 1   
    43   40   41 2   
    44   40   50 1   
    45   42   43 1   
    46   42   48 1   
    47   42   49 1   
    48   43   44 1   
    49   43   45 1   
    50   50   51 1   
    51   50   54 1   
    52   51   52 1   
    53   51   55 1   
    54   51   56 1   
    55   52   53 2   
    56   52   57 1   
    57   57   58 1   
    58   57   65 1   
    59   58   59 1   
    60   58   61 1   
    61   58   66 1   
    62   59   60 2   
    63   59   69 1   
    64   61   62 1   
    65   61   67 1   
    66   61   68 1   
    67   62   63 1   
    68   62   64 1   
    69   69   70 1   
    70   69   73 1   
    71   70   71 1   
    72   70   74 1   
    73   70   75 1   
    74   71   72 2   
    75   71   76 1   
    76   76   77 1   
    77   76   85 1   
    78   77   78 1   
    79   77   80 1   
    80   77   86 1   
    81   78   79 2   
    82   78   93 1   
    83   80   81 1   
    84   80   87 1   
    85   80   88 1   
    86   81   82 1   
    87   81   89 1   
    88   81   90 1   
    89   82   83 1   
    90   82   84 2   
    91   83   91 1   
    92   83   92 1   
    93   93   94 1   
    94   93  100 1   
    95   94   95 1   
    96   94   97 1   
    97   94  101 1   
    98   95   96 2   
    99   95  109 1   
   100   97   98 1   
   101   97   99 1   
   102   97  102 1   
   103   98  103 1   
   104   98  104 1   
   105   98  105 1   
   106   99  106 1   
   107   99  107 1   
   108   99  108 1   
   109  109  110 1   
   110  109  117 1   
   111  110  111 1   
   112  110  113 1   
   113  110  118 1   
   114  111  112 2   
   115  111  123 1   
   116  113  114 1   
   117  113  119 1   
   118  113  120 1   
   119  114  115 1   
   120  114  116 2   
   121  115  121 1   
   122  115  122 1   
   123  123  124 1   
   124  123  135 1   
   125  124  125 1   
   126  124  127 1   
   127  124  136 1   
   128  125  126 2   
   129  125  144 1   
   130  127  128 1   
   131  127  137 1   
   132  127  138 1   
   133  128  129 ar  
   134  128  130 ar  
   135  129  131 ar  
   136  129  139 1   
   137  130  132 ar  
   138  130  140 1   
   139  131  133 ar  
   140  131  141 1   
   141  132  133 ar  
   142  132  142 1   
   143  133  134 1   
   144  134  143 1   
   145  144  145 1   
   146  144  153 1   
   147  145  146 1   
   148  145  148 1   
   149  145  154 1   
   150  146  147 2   
   151  146  159 1   
   152  148  149 1   
   153  148  155 1   
   154  148  156 1   
   155  149  150 1   
   156  149  157 1   
   157  149  158 1   
   158  150  151 1   
   159  150  152 1   
   160  159  160 1   
   161  159  168 1   
   162  160  161 1   
   163  160  163 1   
   164  160  169 1   
   165  161  162 2   
   166  161  174 1   
   167  163  164 1   
   168  163  170 1   
   169  163  171 1   
   170  164  165 1   
   171  164  172 1   
   172  164  173 1   
   173  165  166 1   
   174  165  167 1   
   175  174  175 1   
   176  174  179 1   
   177  175  176 1   
   178  175  177 1   
   179  175  178 1   
   180  181  182 1   
   181  181  183 1   
   182  184  185 1   
   183  184  186 1   
   184  187  188 1   
   185  187  189 1   
   186  190  191 1   
   187  190  192 1   
@<TRIPOS>SUBSTRUCTURE
     1 MOL         1 TEMP              0 ****  ****    0 ROOT
