@<TRIPOS>MOLECULE
MOL
  181   177     1     0     0
SMALL
resp


@<TRIPOS>ATOM
      1 C1         10.5300    7.4170   -0.4520 c3        1 MOL     -0.398337
      2 C2          9.3230    6.5110    0.0680 c         1 MOL      0.640841
      3 O1          8.4370    6.9070    0.8150 o         1 MOL     -0.566266
      4 H1         10.5310    7.4290   -1.5410 hc        1 MOL      0.105189
      5 H2         10.4090    8.4340   -0.0780 hc        1 MOL      0.105189
      6 H3         11.4740    7.0080   -0.0930 hc        1 MOL      0.105189
      7 N1          9.2880    5.2070   -0.3030 n         1 MOL     -0.511078
      8 C3         10.0700    4.4120   -1.2570 c3        1 MOL      0.159645
      9 C4         10.8190    3.2210   -0.5670 c         1 MOL      0.375515
     10 O2         11.7260    2.5890   -1.1120 o         1 MOL     -0.533599
     11 C5          9.2750    3.8550   -2.4570 c3        1 MOL     -0.182125
     12 C6          7.9950    3.0720   -2.0410 c         1 MOL      0.761639
     13 O3          7.7550    2.7990   -0.8250 o         1 MOL     -0.787202
     14 O4          7.3130    2.4150   -2.8770 o         1 MOL     -0.787202
     15 H4          8.4990    4.7230    0.1220 hn        1 MOL      0.300629
     16 H5         10.8200    5.0670   -1.6910 h1        1 MOL      0.049608
     17 H6          9.9450    3.2810   -3.0810 hc        1 MOL      0.058929
     18 H7          8.9600    4.7310   -3.0260 hc        1 MOL      0.058929
     19 N2         10.5960    3.0170    0.7540 n         1 MOL     -0.333938
     20 C7         11.2530    2.0470    1.6630 c3        1 MOL      0.186417
     21 C8         10.9040    0.5700    1.3650 c         1 MOL      0.445946
     22 O5         11.6830   -0.3140    1.7000 o         1 MOL     -0.570235
     23 C9         10.8360    2.5500    3.0870 c3        1 MOL     -0.367433
     24 H8         10.0030    3.6930    1.2030 hn        1 MOL      0.226985
     25 H9         12.3360    2.1700    1.6420 h1        1 MOL      0.059758
     26 H10        10.9700    1.7050    3.7580 hc        1 MOL      0.104735
     27 H11        11.5390    3.3110    3.4130 hc        1 MOL      0.104735
     28 H12         9.7880    2.8290    3.1890 hc        1 MOL      0.104735
     29 N3          9.8110    0.2580    0.6300 n         1 MOL     -0.158117
     30 C10         9.3560   -1.1660    0.3970 c3        1 MOL     -0.040689
     31 C11         8.6970   -1.4550   -0.9390 c         1 MOL      0.338923
     32 O6          8.3040   -0.5490   -1.6630 o         1 MOL     -0.494636
     33 C12         8.4470   -1.6430    1.5430 c3        1 MOL     -0.151589
     34 C13         7.2050   -0.6670    1.7620 c         1 MOL      0.659694
     35 O7          6.9060    0.1740    0.8980 o         1 MOL     -0.663064
     36 O8          6.5310   -0.8940    2.8050 o         1 MOL     -0.663064
     37 H13         9.1040    0.9700    0.5170 hn        1 MOL      0.179347
     38 H14        10.2760   -1.7550    0.4100 h1        1 MOL      0.077672
     39 H15         9.0840   -1.6700    2.4280 hc        1 MOL      0.048450
     40 H16         8.0650   -2.6350    1.3090 hc        1 MOL      0.048450
     41 N4          8.5330   -2.7400   -1.2650 n         1 MOL     -0.217245
     42 C14         7.6400   -3.3110   -2.3290 c3        1 MOL     -0.290918
     43 C15         6.1400   -3.1230   -1.9980 c         1 MOL      0.640861
     44 O9          5.6780   -2.2940   -1.1990 o         1 MOL     -0.465879
     45 H17         9.1160   -3.3160   -0.6650 hn        1 MOL      0.240497
     46 H18         7.9120   -4.3740   -2.3130 h1        1 MOL      0.130195
     47 H19         7.9190   -2.8870   -3.2940 h1        1 MOL      0.130195
     48 N5          5.3140   -3.9200   -2.7220 n         1 MOL     -0.583664
     49 C16         3.8480   -3.8460   -2.5350 c3        1 MOL      0.122092
     50 C17         3.3320   -4.3760   -1.1820 c         1 MOL      0.661988
     51 O10         4.0860   -5.0590   -0.4350 o         1 MOL     -0.517541
     52 C18         3.0510   -4.4550   -3.6810 c3        1 MOL     -0.386524
     53 C19         3.0690   -5.9630   -3.6780 c         1 MOL      0.644727
     54 N6          3.9020   -6.5800   -4.5240 n         1 MOL     -0.761006
     55 O11         2.3280   -6.5590   -2.9250 o         1 MOL     -0.500983
     56 H20         5.6360   -4.5480   -3.4490 hn        1 MOL      0.296521
     57 H21         3.6920   -2.7830   -2.7220 h1        1 MOL      0.075603
     58 H22         3.4180   -4.0210   -4.6140 hc        1 MOL      0.116079
     59 H23         2.0220   -4.1060   -3.5910 hc        1 MOL      0.116079
     60 H24         4.4680   -6.0480   -5.1700 hn        1 MOL      0.351653
     61 H25         3.5890   -7.5180   -4.7410 hn        1 MOL      0.351653
     62 N7          2.1030   -3.9840   -0.8380 n         1 MOL     -0.634667
     63 C20         1.5390   -4.1410    0.5270 c3        1 MOL      0.087278
     64 C21         1.7280   -2.8460    1.3690 c         1 MOL      0.652771
     65 O12         2.7050   -2.0970    1.2400 o         1 MOL     -0.567575
     66 H26         1.5590   -3.3980   -1.4620 hn        1 MOL      0.323522
     67 H27         2.0770   -4.9420    1.0310 h1        1 MOL      0.087422
     68 H28         0.4650   -4.2480    0.3970 h1        1 MOL      0.087422
     69 N8          0.7550   -2.5990    2.2240 n         1 MOL     -0.572281
     70 C22        -0.2260   -3.5920    2.8170 c3        1 MOL      0.051173
     71 C23        -1.6570   -3.0290    3.0210 c         1 MOL      0.519614
     72 O13        -2.6580   -3.7740    3.3020 o         1 MOL     -0.590465
     73 C24         0.3570   -3.9960    4.1740 c3        1 MOL      0.490315
     74 C25         1.3840   -5.1740    4.0740 c3        1 MOL     -0.328226
     75 O14         1.0020   -2.9320    4.8040 oh        1 MOL     -0.608636
     76 H29         0.7980   -1.7150    2.7120 hn        1 MOL      0.313269
     77 H30        -0.2710   -4.4970    2.2170 h1        1 MOL      0.017339
     78 H31        -0.4630   -4.4120    4.7650 h1        1 MOL     -0.054515
     79 H32         0.3490   -2.3030    5.1310 ho        1 MOL      0.378581
     80 H33         2.2280   -4.9380    3.4270 hc        1 MOL      0.079253
     81 H34         1.6780   -5.5150    5.0690 hc        1 MOL      0.079253
     82 H35         0.8920   -6.0230    3.5830 hc        1 MOL      0.079253
     83 N9         -1.9300   -1.7100    2.8990 n         1 MOL     -0.446111
     84 C26        -3.1740   -0.9880    2.9670 c3        1 MOL     -0.082960
     85 C27        -3.1850    0.1550    1.9050 c         1 MOL      0.453606
     86 O15        -2.1530    0.8250    1.7460 o         1 MOL     -0.534212
     87 C28        -3.3400   -0.3870    4.3720 c3        1 MOL      0.235307
     88 C29        -2.9380   -1.4110    5.5120 c3        1 MOL      0.006174
     89 C30        -4.8610   -0.0330    4.4960 c3        1 MOL     -0.107929
     90 C31        -2.8690   -0.7220    6.9280 c3        1 MOL     -0.325093
     91 H36        -1.1520   -1.1290    2.5970 hn        1 MOL      0.252153
     92 H37        -3.9930   -1.7000    2.8420 h1        1 MOL      0.150084
     93 H38        -2.7150    0.5010    4.4640 hc        1 MOL      0.014225
     94 H39        -1.9470   -1.8280    5.3110 hc        1 MOL     -0.006084
     95 H40        -3.6800   -2.2140    5.4950 hc        1 MOL     -0.006084
     96 H41        -4.9270    0.6250    5.3710 hc        1 MOL      0.025603
     97 H42        -5.2110    0.5240    3.6240 hc        1 MOL      0.025603
     98 H43        -5.4280   -0.9660    4.5270 hc        1 MOL      0.025603
     99 H44        -2.1380    0.0840    7.0370 hc        1 MOL      0.077177
    100 H45        -3.8460   -0.3150    7.2310 hc        1 MOL      0.077177
    101 H46        -2.6570   -1.5930    7.5520 hc        1 MOL      0.077177
    102 N10        -4.2050    0.2360    0.9980 n         1 MOL     -0.250192
    103 C32        -5.1820   -0.8140    0.7320 c3        1 MOL      0.025305
    104 C33        -6.3210   -0.2590   -0.0050 c         1 MOL      0.528693
    105 O16        -6.1810    0.6710   -0.8240 o         1 MOL     -0.471918
    106 C34        -4.6520   -1.9170   -0.1200 c3        1 MOL     -0.166973
    107 C35        -3.9270   -1.4480   -1.3580 c         1 MOL      0.656933
    108 O17        -2.6950   -1.2160   -1.2790 o         1 MOL     -0.709065
    109 O18        -4.5250   -1.3230   -2.4480 o         1 MOL     -0.709065
    110 H47        -4.1550    0.9770    0.3280 hn        1 MOL      0.288876
    111 H48        -5.6420   -1.2220    1.6320 h1        1 MOL      0.031716
    112 H49        -5.4520   -2.5960   -0.3970 hc        1 MOL      0.022700
    113 H50        -3.9750   -2.5240    0.4700 hc        1 MOL      0.022700
    114 N11        -7.4880   -0.9000    0.1410 n         1 MOL     -0.535841
    115 C36        -8.8230   -0.5600   -0.5110 c3        1 MOL      0.289341
    116 C37        -9.8930    0.1870    0.2900 c         1 MOL      0.341212
    117 O19       -10.1020   -0.1440    1.4440 o         1 MOL     -0.522222
    118 C38        -9.3750   -1.8760   -0.9260 c3        1 MOL     -0.273707
    119 C39       -10.5480   -1.8480   -1.8520 ca        1 MOL      0.193514
    120 C40       -11.8510   -1.8350   -1.3170 ca        1 MOL     -0.223357
    121 C41       -10.3440   -1.7990   -3.2140 ca        1 MOL     -0.223357
    122 C42       -12.9260   -1.6510   -2.1910 ca        1 MOL     -0.097293
    123 C43       -11.4230   -1.6610   -4.1090 ca        1 MOL     -0.097293
    124 C44       -12.7430   -1.5690   -3.5780 ca        1 MOL     -0.142861
    125 H51        -7.5700   -1.7620    0.6710 hn        1 MOL      0.304801
    126 H52        -8.5540   -0.0950   -1.4580 h1        1 MOL      0.074269
    127 H53        -9.4660   -2.5050   -0.0400 hc        1 MOL      0.071870
    128 H54        -8.5440   -2.3150   -1.4750 hc        1 MOL      0.071870
    129 H55       -12.0330   -1.8900   -0.2560 ha        1 MOL      0.155307
    130 H56        -9.3470   -1.9040   -3.6180 ha        1 MOL      0.155307
    131 H57       -13.9630   -1.6010   -1.8800 ha        1 MOL      0.105960
    132 H58       -11.2410   -1.4910   -5.1670 ha        1 MOL      0.105960
    133 H59       -13.6270   -1.4340   -4.1840 ha        1 MOL      0.100646
    134 N12       -10.6670    1.0780   -0.3120 n         1 MOL      0.064699
    135 C45       -10.5630    1.7440   -1.5980 c3        1 MOL     -0.261606
    136 C46        -9.2770    2.5980   -1.7000 c         1 MOL      0.519925
    137 O20        -8.6670    2.6530   -2.7500 o         1 MOL     -0.576059
    138 C47       -11.8070    2.5840   -1.7620 c3        1 MOL      0.266754
    139 C48       -12.8490    1.8460   -1.0140 c3        1 MOL     -0.127965
    140 C49       -12.0500    1.2950    0.1820 c3        1 MOL     -0.048713
    141 H60       -10.5330    0.9460   -2.3310 h1        1 MOL      0.097590
    142 H61       -11.6120    3.5320   -1.2700 hc        1 MOL     -0.032230
    143 H62       -12.1280    2.8710   -2.7620 hc        1 MOL     -0.032230
    144 H63       -13.5920    2.5420   -0.6430 hc        1 MOL      0.025368
    145 H64       -13.2950    1.0650   -1.6160 hc        1 MOL      0.025368
    146 H65       -11.9270    1.9590    1.0440 h1        1 MOL      0.042877
    147 H66       -12.4560    0.3890    0.6240 h1        1 MOL      0.042877
    148 N13        -8.7820    3.0770   -0.5730 n         1 MOL     -0.317269
    149 C50        -7.4920    3.7860   -0.4570 c3        1 MOL      0.063406
    150 C51        -7.5400    5.1140   -1.2440 c         1 MOL      0.379062
    151 O21        -7.9800    6.1360   -0.7210 o         1 MOL     -0.566427
    152 C52        -7.2190    3.9550    1.0790 c3        1 MOL      0.082868
    153 C53        -6.8290    2.6870    1.8700 c3        1 MOL     -0.073918
    154 C54        -6.4890    2.9400    3.3510 c         1 MOL      0.762887
    155 O22        -5.3450    3.2180    3.6500 o         1 MOL     -0.751561
    156 O23        -7.3920    2.9310    4.2350 o         1 MOL     -0.751561
    157 H67        -9.2690    2.7930    0.2580 hn        1 MOL      0.227481
    158 H68        -6.6750    3.1960   -0.8450 h1        1 MOL      0.113678
    159 H69        -8.0240    4.4590    1.6190 hc        1 MOL     -0.006190
    160 H70        -6.3600    4.6090    1.2070 hc        1 MOL     -0.006190
    161 H71        -5.9280    2.3050    1.3700 hc        1 MOL     -0.076367
    162 H72        -7.5850    1.9100    1.8010 hc        1 MOL     -0.076367
    163 N14        -7.0330    5.1530   -2.4790 n         1 MOL     -0.263953
    164 C55        -6.2750    4.1060   -3.1960 c3        1 MOL     -0.214737
    165 H73        -5.7870    4.5440   -4.0670 h1        1 MOL      0.101621
    166 H74        -5.5210    3.6830   -2.5330 h1        1 MOL      0.101621
    167 H75        -6.9570    3.3210   -3.5200 h1        1 MOL      0.101621
    168 H76        -7.1930    6.0310   -2.9520 hn        1 MOL      0.241823
    169 Ca1         5.9510    0.7890   -1.4020 Ca        1 MOL      1.750369
    170 O24         4.4400    1.5480    0.9810 oh        1 MOL     -0.819350
    171 H77         4.5330    1.1350    1.8430 ho        1 MOL      0.408817
    172 H78         3.8220    2.2690    1.1350 ho        1 MOL      0.408817
    173 O25         4.3840    2.5010   -2.4760 oh        1 MOL     -0.819350
    174 H79         3.5710    2.8660   -2.1280 ho        1 MOL      0.408817
    175 H80         4.4810    2.9100   -3.3390 ho        1 MOL      0.408817
    176 O26         5.2820   -0.4180   -3.6440 oh        1 MOL     -0.819350
    177 H81         4.4830   -0.6530   -4.1150 ho        1 MOL      0.408817
    178 H82         5.9970   -0.7340   -4.1910 ho        1 MOL      0.408817
    179 O27         3.5100   -0.2800   -1.2230 oh        1 MOL     -0.819350
    180 H83         3.4240   -0.9290   -0.5230 ho        1 MOL      0.408817
    181 H84         2.6280    0.0960   -1.3130 ho        1 MOL      0.408817
@<TRIPOS>BOND
     1    1    2 1   
     2    1    4 1   
     3    1    5 1   
     4    1    6 1   
     5    2    3 2   
     6    2    7 1   
     7    7    8 1   
     8    7   15 1   
     9    8    9 1   
    10    8   11 1   
    11    8   16 1   
    12    9   10 2   
    13    9   19 1   
    14   11   12 1   
    15   11   17 1   
    16   11   18 1   
    17   12   13 1   
    18   12   14 1   
    19   19   20 1   
    20   19   24 1   
    21   20   21 1   
    22   20   23 1   
    23   20   25 1   
    24   21   22 2   
    25   21   29 1   
    26   23   26 1   
    27   23   27 1   
    28   23   28 1   
    29   29   30 1   
    30   29   37 1   
    31   30   31 1   
    32   30   33 1   
    33   30   38 1   
    34   31   32 2   
    35   31   41 1   
    36   33   34 1   
    37   33   39 1   
    38   33   40 1   
    39   34   35 1   
    40   34   36 1   
    41   41   42 1   
    42   41   45 1   
    43   42   43 1   
    44   42   46 1   
    45   42   47 1   
    46   43   44 2   
    47   43   48 1   
    48   48   49 1   
    49   48   56 1   
    50   49   50 1   
    51   49   52 1   
    52   49   57 1   
    53   50   51 2   
    54   50   62 1   
    55   52   53 1   
    56   52   58 1   
    57   52   59 1   
    58   53   54 1   
    59   53   55 2   
    60   54   60 1   
    61   54   61 1   
    62   62   63 1   
    63   62   66 1   
    64   63   64 1   
    65   63   67 1   
    66   63   68 1   
    67   64   65 2   
    68   64   69 1   
    69   69   70 1   
    70   69   76 1   
    71   70   71 1   
    72   70   73 1   
    73   70   77 1   
    74   71   72 2   
    75   71   83 1   
    76   73   74 1   
    77   73   75 1   
    78   73   78 1   
    79   74   80 1   
    80   74   81 1   
    81   74   82 1   
    82   75   79 1   
    83   83   84 1   
    84   83   91 1   
    85   84   85 1   
    86   84   87 1   
    87   84   92 1   
    88   85   86 2   
    89   85  102 1   
    90   87   88 1   
    91   87   89 1   
    92   87   93 1   
    93   88   90 1   
    94   88   94 1   
    95   88   95 1   
    96   89   96 1   
    97   89   97 1   
    98   89   98 1   
    99   90   99 1   
   100   90  100 1   
   101   90  101 1   
   102  102  103 1   
   103  102  110 1   
   104  103  104 1   
   105  103  106 1   
   106  103  111 1   
   107  104  105 2   
   108  104  114 1   
   109  106  107 1   
   110  106  112 1   
   111  106  113 1   
   112  107  108 1   
   113  107  109 1   
   114  114  115 1   
   115  114  125 1   
   116  115  116 1   
   117  115  118 1   
   118  115  126 1   
   119  116  117 2   
   120  116  134 1   
   121  118  119 1   
   122  118  127 1   
   123  118  128 1   
   124  119  120 ar  
   125  119  121 ar  
   126  120  122 ar  
   127  120  129 1   
   128  121  123 ar  
   129  121  130 1   
   130  122  124 ar  
   131  122  131 1   
   132  123  124 ar  
   133  123  132 1   
   134  124  133 1   
   135  134  135 1   
   136  134  140 1   
   137  135  136 1   
   138  135  138 1   
   139  135  141 1   
   140  136  137 2   
   141  136  148 1   
   142  138  139 1   
   143  138  142 1   
   144  138  143 1   
   145  139  140 1   
   146  139  144 1   
   147  139  145 1   
   148  140  146 1   
   149  140  147 1   
   150  148  149 1   
   151  148  157 1   
   152  149  150 1   
   153  149  152 1   
   154  149  158 1   
   155  150  151 2   
   156  150  163 1   
   157  152  153 1   
   158  152  159 1   
   159  152  160 1   
   160  153  154 1   
   161  153  161 1   
   162  153  162 1   
   163  154  155 1   
   164  154  156 1   
   165  163  164 1   
   166  163  168 1   
   167  164  165 1   
   168  164  166 1   
   169  164  167 1   
   170  170  171 1   
   171  170  172 1   
   172  173  174 1   
   173  173  175 1   
   174  176  177 1   
   175  176  178 1   
   176  179  180 1   
   177  179  181 1   
@<TRIPOS>SUBSTRUCTURE
     1 MOL         1 TEMP              0 ****  ****    0 ROOT
