@<TRIPOS>MOLECULE
MOL
  194   186     1     0     0
SMALL
resp


@<TRIPOS>ATOM
      1 C1         -5.3820    1.6060   -2.9590 c3        1 MOL     -0.312835
      2 C2         -6.5090    1.5100   -1.8690 c         1 MOL      0.665805
      3 O1         -6.2560    0.9390   -0.8010 o         1 MOL     -0.505047
      4 H1         -4.6010    0.8780   -2.7370 hc        1 MOL      0.079310
      5 H2         -5.8070    1.3950   -3.9410 hc        1 MOL      0.079310
      6 H3         -4.9560    2.6090   -2.9540 hc        1 MOL      0.079310
      7 N1         -7.7180    1.9840   -1.9810 n         1 MOL     -0.488820
      8 C3         -8.9330    1.8950   -1.1470 c3        1 MOL     -0.031931
      9 C4         -9.2840    0.4450   -0.6640 c         1 MOL      0.525480
     10 O2        -10.2040    0.2630    0.1090 o         1 MOL     -0.516216
     11 C5         -8.9510    2.8770    0.1410 c3        1 MOL     -0.122985
     12 C6         -8.5730    4.2740   -0.1790 c         1 MOL      0.731733
     13 O3         -7.3770    4.5740   -0.1590 o         1 MOL     -0.679117
     14 O4         -9.4860    5.1010   -0.3400 o         1 MOL     -0.679117
     15 H4         -7.8770    2.4120   -2.8910 hn        1 MOL      0.295621
     16 H5         -9.7500    2.1690   -1.8070 h1        1 MOL      0.103886
     17 H6         -8.2780    2.5540    0.9450 hc        1 MOL      0.055157
     18 H7         -9.9860    2.9480    0.4630 hc        1 MOL      0.055157
     19 N2         -8.6140   -0.6180   -1.1870 n         1 MOL     -0.476288
     20 C7         -8.8290   -2.0150   -0.8280 c3        1 MOL      0.214068
     21 C8         -7.4600   -2.7360   -0.6160 c         1 MOL      0.472060
     22 O5         -7.3530   -3.9330   -0.3040 o         1 MOL     -0.570602
     23 C9         -9.6130   -2.6770   -1.9200 c3        1 MOL     -0.048771
     24 C10       -10.7670   -3.4410   -1.2200 c3        1 MOL     -0.006221
     25 C11       -11.5140   -4.2410   -2.3250 c3        1 MOL      0.045109
     26 C12       -10.7490   -5.3130   -2.9660 c3        1 MOL      0.009621
     27 N3        -11.7460   -6.2710   -3.5490 n4        1 MOL     -0.101490
     28 H8         -7.9490   -0.2890   -1.8830 hn        1 MOL      0.165160
     29 H9         -9.3650   -2.0840    0.1130 h1        1 MOL      0.093895
     30 H10        -9.0790   -3.3680   -2.5730 hc        1 MOL      0.016365
     31 H11       -10.1310   -2.0230   -2.6200 hc        1 MOL      0.016365
     32 H12       -11.3740   -2.6470   -0.7960 hc        1 MOL      0.022376
     33 H13       -10.3870   -4.1090   -0.4450 hc        1 MOL      0.022376
     34 H14       -11.8290   -3.5550   -3.1080 hc        1 MOL      0.005951
     35 H15       -12.3930   -4.6380   -1.8230 hc        1 MOL      0.005951
     36 H16       -10.1180   -5.7860   -2.2090 hx        1 MOL      0.067818
     37 H17       -10.1570   -4.8760   -3.7600 hx        1 MOL      0.067818
     38 H18       -11.2780   -6.8940   -4.1920 hn        1 MOL      0.192689
     39 H19       -12.1540   -6.9940   -2.9600 hn        1 MOL      0.192689
     40 H20       -12.4570   -5.8450   -4.1290 hn        1 MOL      0.192689
     41 N4         -6.3580   -1.9920   -0.7270 n         1 MOL     -0.313305
     42 C13        -5.0600   -2.4070   -0.2210 c3        1 MOL     -0.159141
     43 C14        -5.0370   -2.4320    1.2860 c         1 MOL      0.477040
     44 O6         -5.6960   -1.6240    1.8870 o         1 MOL     -0.442606
     45 C15        -3.8810   -1.4900   -0.7060 c3        1 MOL     -0.125966
     46 C16        -2.4280   -1.9050   -0.2720 c         1 MOL      0.691517
     47 O7         -1.5860   -2.3670   -1.0770 o         1 MOL     -0.765452
     48 O8         -2.0230   -1.7280    0.9020 o         1 MOL     -0.765452
     49 H21        -6.4720   -1.0290   -1.0100 hn        1 MOL      0.263480
     50 H22        -4.8660   -3.4260   -0.5590 h1        1 MOL      0.076657
     51 H23        -4.0390   -0.4790   -0.3280 hc        1 MOL      0.062862
     52 H24        -3.9230   -1.3570   -1.7780 hc        1 MOL      0.062862
     53 N5         -4.1760   -3.2490    1.9270 n         1 MOL     -0.105867
     54 C17        -4.2520   -3.4130    3.3730 c3        1 MOL     -0.328478
     55 C18        -3.7690   -2.2210    4.2160 c         1 MOL      0.647790
     56 O9         -4.1640   -2.0760    5.3220 o         1 MOL     -0.548919
     57 H25        -3.8070   -4.0140    1.3740 hn        1 MOL      0.202573
     58 H26        -3.4840   -4.1380    3.6180 h1        1 MOL      0.101687
     59 H27        -5.2380   -3.6640    3.7720 h1        1 MOL      0.101687
     60 N6         -2.9960   -1.3130    3.5490 n         1 MOL     -0.173181
     61 C19        -2.4620   -0.1220    4.1500 c3        1 MOL     -0.126032
     62 C20        -2.4950    1.1530    3.2330 c         1 MOL      0.490269
     63 O10        -2.9680    2.2050    3.5870 o         1 MOL     -0.485753
     64 C21        -1.1010   -0.3570    4.8750 c3        1 MOL     -0.226894
     65 C22         0.1310   -0.5850    3.9380 c         1 MOL      0.638198
     66 N7          1.2960   -0.6600    4.5160 n         1 MOL     -0.669629
     67 O11         0.0120   -0.8180    2.7210 o         1 MOL     -0.623080
     68 H28        -2.7040   -1.6140    2.6340 hn        1 MOL      0.033303
     69 H29        -3.1920    0.2670    4.8620 h1        1 MOL      0.120552
     70 H30        -1.2250   -1.2990    5.4270 hc        1 MOL      0.096262
     71 H31        -0.8950    0.5430    5.4560 hc        1 MOL      0.096262
     72 H32         1.3550   -0.5780    5.5240 hn        1 MOL      0.310824
     73 H33         2.0680   -1.0370    3.9940 hn        1 MOL      0.310824
     74 N8         -2.0470    0.9580    1.9280 n         1 MOL     -0.238963
     75 C23        -1.9270    1.9710    0.8680 c3        1 MOL     -0.522852
     76 C24        -0.7870    2.8760    0.9460 c         1 MOL      0.860631
     77 O12         0.0410    2.8080    1.8300 o         1 MOL     -0.587281
     78 H34        -1.7340    0.0320    1.6830 hn        1 MOL      0.430806
     79 H35        -2.8260    2.5870    0.9540 h1        1 MOL      0.187048
     80 H36        -1.7900    1.3930   -0.0410 h1        1 MOL      0.187048
     81 N9         -0.5560    3.5880   -0.1150 n         1 MOL     -0.671374
     82 C25         0.7160    4.1900   -0.4400 c3        1 MOL      0.205370
     83 C26         1.8100    3.2280   -0.9200 c         1 MOL      0.731661
     84 O13         1.4660    2.0590   -1.2250 o         1 MOL     -0.591257
     85 C27         0.5720    5.4150   -1.3370 c3        1 MOL     -0.141067
     86 C28        -0.6200    6.3540   -1.0580 ca        1 MOL      0.016969
     87 C29        -1.4940    6.7600   -2.1180 ca        1 MOL     -0.187343
     88 C30        -0.7460    6.9200    0.2530 ca        1 MOL     -0.187343
     89 C31        -2.4030    7.7890   -1.8130 ca        1 MOL     -0.158217
     90 C32        -1.7410    7.8390    0.5590 ca        1 MOL     -0.158217
     91 C33        -2.5690    8.3040   -0.4690 ca        1 MOL      0.254755
     92 O14        -3.5940    9.1380   -0.2990 oh        1 MOL     -0.465188
     93 H37        -1.3540    3.7920   -0.7070 hn        1 MOL      0.348928
     94 H38         1.2180    4.4840    0.4810 h1        1 MOL      0.000905
     95 H39         0.5030    5.0270   -2.3540 hc        1 MOL      0.045557
     96 H40         1.4760    6.0290   -1.3350 hc        1 MOL      0.045557
     97 H41        -1.4780    6.3700   -3.1250 ha        1 MOL      0.143235
     98 H42        -0.0870    6.6490    1.0660 ha        1 MOL      0.143235
     99 H43        -3.0250    8.0850   -2.6460 ha        1 MOL      0.127983
    100 H44        -1.7510    8.3170    1.5280 ha        1 MOL      0.127983
    101 H45        -3.7280    9.5110    0.5820 ho        1 MOL      0.395509
    102 N10         3.0160    3.6410   -1.0330 n         1 MOL     -0.793874
    103 C34         4.0310    2.8770   -1.6210 c3        1 MOL      0.014331
    104 C35         5.0160    2.6350   -0.4850 c         1 MOL      0.972503
    105 O15         5.5700    1.5270   -0.3920 o         1 MOL     -0.795542
    106 C36         4.7430    3.6290   -2.8040 c3        1 MOL      0.069630
    107 C37         3.6810    4.1400   -3.8360 c3        1 MOL      0.076232
    108 C38         5.7560    2.7250   -3.4480 c3        1 MOL     -0.363757
    109 C39         2.8630    3.0540   -4.4690 c3        1 MOL     -0.334114
    110 H46         3.2010    4.5840   -0.7080 hn        1 MOL      0.357638
    111 H47         3.7460    1.8980   -2.0220 h1        1 MOL      0.119733
    112 H48         5.2690    4.5060   -2.4250 hc        1 MOL     -0.050518
    113 H49         4.1860    4.7510   -4.5850 hc        1 MOL      0.017121
    114 H50         2.9820    4.7900   -3.3170 hc        1 MOL      0.017121
    115 H51         6.4200    2.4050   -2.6480 hc        1 MOL      0.109443
    116 H52         5.2050    1.8890   -3.8740 hc        1 MOL      0.109443
    117 H53         6.3610    3.1980   -4.2240 hc        1 MOL      0.109443
    118 H54         3.5410    2.3730   -4.9850 hc        1 MOL      0.097084
    119 H55         2.1630    2.7120   -3.7030 hc        1 MOL      0.097084
    120 H56         2.2870    3.6160   -5.1940 hc        1 MOL      0.097084
    121 N11         5.3360    3.6650    0.3500 n         1 MOL     -0.525409
    122 C40         6.0860    3.5590    1.6160 c3        1 MOL     -0.012606
    123 C41         7.4930    2.8810    1.4140 c         1 MOL      0.226045
    124 O16         7.9840    2.2520    2.3430 o         1 MOL     -0.424262
    125 C42         6.4640    4.9010    2.2280 c3        1 MOL      0.207780
    126 O17         5.2440    5.2700    2.8400 oh        1 MOL     -0.611873
    127 H57         4.8910    4.5530    0.1850 hn        1 MOL      0.296141
    128 H58         5.5090    3.0010    2.3560 h1        1 MOL      0.140417
    129 H59         6.8650    5.5960    1.4850 h1        1 MOL      0.043864
    130 H60         7.1510    4.8720    3.0740 h1        1 MOL      0.043864
    131 H61         5.2750    6.1060    3.3210 ho        1 MOL      0.401903
    132 N12         8.0290    2.8530    0.1860 n         1 MOL     -0.244443
    133 C43         9.1680    1.9750   -0.2430 c3        1 MOL      0.236216
    134 C44         9.0560    0.5050    0.1710 c         1 MOL      0.471448
    135 O18        10.0260   -0.0640    0.6900 o         1 MOL     -0.491957
    136 C45        10.4700    2.6260    0.3320 c3        1 MOL     -0.547907
    137 H62         7.5790    3.4510   -0.4960 hn        1 MOL      0.196371
    138 H63         9.2780    1.9880   -1.3200 h1        1 MOL      0.037730
    139 H64        10.4820    2.4130    1.3980 hc        1 MOL      0.155201
    140 H65        11.2710    2.0470   -0.1450 hc        1 MOL      0.155201
    141 H66        10.5150    3.6910    0.1060 hc        1 MOL      0.155201
    142 N13         7.8180   -0.0130    0.3170 n         1 MOL     -0.814981
    143 C46         7.5200   -1.4760    0.6480 c3        1 MOL      0.785312
    144 C47         7.1720   -2.3440   -0.5860 c         1 MOL      0.403742
    145 O19         6.5050   -1.8860   -1.4970 o         1 MOL     -0.484905
    146 C48         6.4610   -1.5610    1.7170 c3        1 MOL     -0.251456
    147 H67         7.0380    0.6300    0.3560 hn        1 MOL      0.474191
    148 H68         8.4480   -1.9080    1.0120 h1        1 MOL     -0.083671
    149 H69         5.5180   -1.0830    1.4660 hc        1 MOL      0.020131
    150 H70         6.1060   -2.5990    1.6950 hc        1 MOL      0.020131
    151 H71         6.8540   -1.2540    2.6910 hc        1 MOL      0.020131
    152 N14         7.6110   -3.6470   -0.6030 n         1 MOL     -0.621158
    153 C49         7.4930   -4.5860   -1.7370 c3        1 MOL      0.269561
    154 C50         7.9930   -4.1390   -3.0810 c         1 MOL      0.303194
    155 O20         7.3320   -4.4070   -4.1130 o         1 MOL     -0.483886
    156 C51         6.0010   -5.0390   -1.8690 c3        1 MOL      0.021515
    157 C52         5.3870   -5.6340   -0.5850 c3        1 MOL     -0.278184
    158 C53         6.2870   -6.7440   -0.0040 c         1 MOL      0.696609
    159 O21         6.7630   -7.5900   -0.7720 o         1 MOL     -0.690720
    160 O22         6.7180   -6.6770    1.1720 o         1 MOL     -0.690720
    161 H72         7.9520   -4.0730    0.2520 hn        1 MOL      0.294472
    162 H73         8.1460   -5.4330   -1.5090 h1        1 MOL      0.077482
    163 H74         5.9940   -5.8110   -2.6450 hc        1 MOL      0.034360
    164 H75         5.3200   -4.2400   -2.1630 hc        1 MOL      0.034360
    165 H76         4.3930   -6.0580   -0.7030 hc        1 MOL      0.011751
    166 H77         5.3390   -4.8160    0.1420 hc        1 MOL      0.011751
    167 N15         9.2610   -3.6500   -3.1860 n         1 MOL     -0.281676
    168 C54         9.5960   -2.9180   -4.4440 c3        1 MOL     -0.124183
    169 H78         8.8330   -2.1650   -4.6410 h1        1 MOL      0.083312
    170 H79        10.5660   -2.4330   -4.3350 h1        1 MOL      0.083312
    171 H80         9.6330   -3.6220   -5.2750 h1        1 MOL      0.083312
    172 H81         9.7790   -3.5620   -2.3210 hn        1 MOL      0.231508
    173 Ca1         0.4230   -2.5670    0.8220 Ca        1 MOL      1.827490
    174 O23        -0.2500   -4.7520   -0.8470 oh        1 MOL     -0.805290
    175 H82        -1.0050   -4.2230   -1.1130 ho        1 MOL      0.401188
    176 H83        -0.5820   -5.6510   -0.8140 ho        1 MOL      0.401188
    177 O24         0.1750   -0.2530   -0.5590 oh        1 MOL     -0.805290
    178 H84         0.7520    0.5020   -0.6730 ho        1 MOL      0.401188
    179 H85        -0.1460   -0.4380   -1.4450 ho        1 MOL      0.401188
    180 O25         1.5660   -3.5390    3.4530 oh        1 MOL     -0.805290
    181 H86         2.2130   -4.2190    3.2610 ho        1 MOL      0.401188
    182 H87         1.9650   -3.0250    4.1550 ho        1 MOL      0.401188
    183 O26         2.2270   -4.9410    1.0690 oh        1 MOL     -0.805290
    184 H88         2.0330   -5.8720    0.9760 ho        1 MOL      0.401188
    185 H89         3.1700   -4.9020    1.2260 ho        1 MOL      0.401188
    186 O27        -1.0110   -4.3770    2.1110 oh        1 MOL     -0.805290
    187 H90        -1.1270   -5.3160    1.9870 ho        1 MOL      0.401188
    188 H91        -1.0800   -4.2480    3.0550 ho        1 MOL      0.401188
    189 O28         2.8220   -1.1470    1.3630 oh        1 MOL     -0.805290
    190 H92         3.3350   -1.4350    2.1170 ho        1 MOL      0.401188
    191 H93         2.8080   -0.1870    1.4360 ho        1 MOL      0.401188
    192 O29         2.2440   -2.3770   -1.1160 oh        1 MOL     -0.805290
    193 H94         3.1750   -2.5440   -1.0070 ho        1 MOL      0.401188
    194 H95         2.1950   -1.7020   -1.7970 ho        1 MOL      0.401188
@<TRIPOS>BOND
     1    1    2 1   
     2    1    4 1   
     3    1    5 1   
     4    1    6 1   
     5    2    3 2   
     6    2    7 1   
     7    7    8 1   
     8    7   15 1   
     9    8    9 1   
    10    8   11 1   
    11    8   16 1   
    12    9   10 2   
    13    9   19 1   
    14   11   12 1   
    15   11   17 1   
    16   11   18 1   
    17   12   13 1   
    18   12   14 1   
    19   19   20 1   
    20   19   28 1   
    21   20   21 1   
    22   20   23 1   
    23   20   29 1   
    24   21   22 2   
    25   21   41 1   
    26   23   24 1   
    27   23   30 1   
    28   23   31 1   
    29   24   25 1   
    30   24   32 1   
    31   24   33 1   
    32   25   26 1   
    33   25   34 1   
    34   25   35 1   
    35   26   27 1   
    36   26   36 1   
    37   26   37 1   
    38   27   38 1   
    39   27   39 1   
    40   27   40 1   
    41   41   42 1   
    42   41   49 1   
    43   42   43 1   
    44   42   45 1   
    45   42   50 1   
    46   43   44 2   
    47   43   53 1   
    48   45   46 1   
    49   45   51 1   
    50   45   52 1   
    51   46   47 1   
    52   46   48 1   
    53   53   54 1   
    54   53   57 1   
    55   54   55 1   
    56   54   58 1   
    57   54   59 1   
    58   55   56 2   
    59   55   60 1   
    60   60   61 1   
    61   60   68 1   
    62   61   62 1   
    63   61   64 1   
    64   61   69 1   
    65   62   63 2   
    66   62   74 1   
    67   64   65 1   
    68   64   70 1   
    69   64   71 1   
    70   65   66 1   
    71   65   67 2   
    72   66   72 1   
    73   66   73 1   
    74   74   75 1   
    75   74   78 1   
    76   75   76 1   
    77   75   79 1   
    78   75   80 1   
    79   76   77 2   
    80   76   81 1   
    81   81   82 1   
    82   81   93 1   
    83   82   83 1   
    84   82   85 1   
    85   82   94 1   
    86   83   84 2   
    87   83  102 1   
    88   85   86 1   
    89   85   95 1   
    90   85   96 1   
    91   86   87 ar  
    92   86   88 ar  
    93   87   89 ar  
    94   87   97 1   
    95   88   90 ar  
    96   88   98 1   
    97   89   91 ar  
    98   89   99 1   
    99   90   91 ar  
   100   90  100 1   
   101   91   92 1   
   102   92  101 1   
   103  102  103 1   
   104  102  110 1   
   105  103  104 1   
   106  103  106 1   
   107  103  111 1   
   108  104  105 2   
   109  104  121 1   
   110  106  107 1   
   111  106  108 1   
   112  106  112 1   
   113  107  109 1   
   114  107  113 1   
   115  107  114 1   
   116  108  115 1   
   117  108  116 1   
   118  108  117 1   
   119  109  118 1   
   120  109  119 1   
   121  109  120 1   
   122  121  122 1   
   123  121  127 1   
   124  122  123 1   
   125  122  125 1   
   126  122  128 1   
   127  123  124 2   
   128  123  132 1   
   129  125  126 1   
   130  125  129 1   
   131  125  130 1   
   132  126  131 1   
   133  132  133 1   
   134  132  137 1   
   135  133  134 1   
   136  133  136 1   
   137  133  138 1   
   138  134  135 2   
   139  134  142 1   
   140  136  139 1   
   141  136  140 1   
   142  136  141 1   
   143  142  143 1   
   144  142  147 1   
   145  143  144 1   
   146  143  146 1   
   147  143  148 1   
   148  144  145 2   
   149  144  152 1   
   150  146  149 1   
   151  146  150 1   
   152  146  151 1   
   153  152  153 1   
   154  152  161 1   
   155  153  154 1   
   156  153  156 1   
   157  153  162 1   
   158  154  155 2   
   159  154  167 1   
   160  156  157 1   
   161  156  163 1   
   162  156  164 1   
   163  157  158 1   
   164  157  165 1   
   165  157  166 1   
   166  158  159 1   
   167  158  160 1   
   168  167  168 1   
   169  167  172 1   
   170  168  169 1   
   171  168  170 1   
   172  168  171 1   
   173  174  175 1   
   174  174  176 1   
   175  177  178 1   
   176  177  179 1   
   177  180  181 1   
   178  180  182 1   
   179  183  184 1   
   180  183  185 1   
   181  186  187 1   
   182  186  188 1   
   183  189  190 1   
   184  189  191 1   
   185  192  193 1   
   186  192  194 1   
@<TRIPOS>SUBSTRUCTURE
     1 MOL         1 TEMP              0 ****  ****    0 ROOT
