@<TRIPOS>MOLECULE
MOL
  175   173     1     0     0
SMALL
resp


@<TRIPOS>ATOM
      1 C1         -5.0830    7.6490    2.1600 c3        1 MOL     -0.395403
      2 C2         -5.9570    7.1820    0.9840 c         1 MOL      0.653318
      3 O1         -5.6940    7.6350   -0.1930 o         1 MOL     -0.587164
      4 H1         -4.1070    7.1680    2.1010 hc        1 MOL      0.101571
      5 H2         -4.9580    8.7310    2.1130 hc        1 MOL      0.101571
      6 H3         -5.5640    7.3790    3.1000 hc        1 MOL      0.101571
      7 N1         -6.9280    6.2930    1.2050 n         1 MOL     -0.491675
      8 C3         -7.9820    5.8950    0.2980 c3        1 MOL      0.131348
      9 C4         -7.4500    4.6400   -0.4960 c         1 MOL      0.589816
     10 O2         -8.1550    3.7130   -0.7860 o         1 MOL     -0.549937
     11 C5         -9.3290    5.6590    0.9530 c3        1 MOL     -0.230377
     12 C6        -10.6020    5.5880    0.1910 c         1 MOL      0.756897
     13 O3        -11.3430    4.5920    0.3050 o         1 MOL     -0.745393
     14 O4        -10.9230    6.6120   -0.4360 o         1 MOL     -0.745393
     15 H4         -7.0200    5.9830    2.1560 hn        1 MOL      0.283430
     16 H5         -8.0280    6.6680   -0.4730 h1        1 MOL      0.047134
     17 H6         -9.5010    6.5090    1.6170 hc        1 MOL      0.023245
     18 H7         -9.2310    4.8020    1.6240 hc        1 MOL      0.023245
     19 N2         -6.1590    4.4820   -0.7450 n         1 MOL     -0.591244
     20 C7         -5.5370    3.2580   -1.2500 c3        1 MOL      0.486017
     21 C8         -4.7190    2.4880   -0.1430 c         1 MOL      0.386666
     22 O5         -4.0840    3.1090    0.7330 o         1 MOL     -0.522295
     23 C9         -4.7520    3.7570   -2.4380 c3        1 MOL     -0.305239
     24 H8         -5.5230    5.1790   -0.3830 hn        1 MOL      0.254664
     25 H9         -6.3400    2.5900   -1.5640 h1        1 MOL     -0.019847
     26 H10        -5.3330    4.3850   -3.1110 hc        1 MOL      0.076299
     27 H11        -3.9420    4.3990   -2.0770 hc        1 MOL      0.076299
     28 H12        -4.2860    2.9480   -2.9960 hc        1 MOL      0.076299
     29 N3         -4.6230    1.1430   -0.2640 n         1 MOL     -0.403764
     30 C10        -5.3090    0.1480   -1.1550 c3        1 MOL      0.044293
     31 C11        -5.6390   -1.1910   -0.4570 c         1 MOL      0.405000
     32 O6         -4.8590   -1.5630    0.3910 o         1 MOL     -0.486920
     33 C12        -4.5630   -0.1400   -2.4640 c3        1 MOL     -0.236790
     34 C13        -3.1830   -0.7200   -2.1440 c         1 MOL      0.803384
     35 O7         -2.9410   -1.9230   -2.2950 o         1 MOL     -0.725652
     36 O8         -2.2770    0.0520   -1.6980 o         1 MOL     -0.725652
     37 H13        -4.0590    0.6250    0.4040 hn        1 MOL      0.306077
     38 H14        -6.2730    0.6290   -1.3500 h1        1 MOL      0.056645
     39 H15        -4.4100    0.7400   -3.0890 hc        1 MOL      0.051256
     40 H16        -5.2840   -0.6940   -3.0760 hc        1 MOL      0.051256
     41 N4         -6.7840   -1.8280   -0.7680 n         1 MOL     -0.362306
     42 C14        -7.0220   -3.2360   -0.4320 c3        1 MOL      0.027300
     43 C15        -6.7440   -4.1580   -1.6180 c         1 MOL      0.536559
     44 O9         -7.7340   -4.5210   -2.2730 o         1 MOL     -0.569815
     45 H17        -7.4700   -1.3940   -1.3710 hn        1 MOL      0.309294
     46 H18        -8.0350   -3.3290   -0.0440 h1        1 MOL      0.061308
     47 H19        -6.4240   -3.5000    0.4410 h1        1 MOL      0.061308
     48 N5         -5.5700   -4.7000   -1.9960 n         1 MOL     -0.500425
     49 C16        -4.2760   -4.5410   -1.1940 c3        1 MOL      0.099098
     50 C17        -4.3170   -5.2100    0.2540 c         1 MOL      0.529609
     51 O10        -4.6340   -6.3880    0.3090 o         1 MOL     -0.560907
     52 C18        -3.1200   -5.1500   -2.1010 c3        1 MOL     -0.220828
     53 C19        -1.7350   -4.7420   -1.6950 c         1 MOL      0.613630
     54 N6         -0.7490   -4.8440   -2.5310 n         1 MOL     -0.579913
     55 O11        -1.4960   -4.2390   -0.5600 o         1 MOL     -0.645207
     56 H20        -5.6750   -5.4240   -2.6890 hn        1 MOL      0.327734
     57 H21        -4.0470   -3.4850   -1.0910 h1        1 MOL      0.053331
     58 H22        -3.3300   -4.8520   -3.1300 hc        1 MOL      0.084244
     59 H23        -3.1880   -6.2330   -2.0480 hc        1 MOL      0.084244
     60 H24        -0.8500   -5.2700   -3.4370 hn        1 MOL      0.307487
     61 H25         0.1640   -4.4720   -2.3030 hn        1 MOL      0.307487
     62 N7         -3.9980   -4.4610    1.3120 n         1 MOL     -0.227261
     63 C20        -3.9320   -4.8760    2.6500 c3        1 MOL     -0.335005
     64 C21        -2.4820   -5.1060    3.0890 c         1 MOL      0.536464
     65 O12        -2.2760   -5.6170    4.1820 o         1 MOL     -0.540635
     66 H26        -3.7950   -3.4810    1.1580 hn        1 MOL      0.256097
     67 H27        -4.5590   -5.7640    2.6140 h1        1 MOL      0.143935
     68 H28        -4.2180   -4.0890    3.3430 h1        1 MOL      0.143935
     69 N8         -1.4360   -4.6250    2.3390 n         1 MOL     -0.184472
     70 C22        -0.0450   -5.0020    2.4380 c3        1 MOL     -0.450358
     71 C23         0.7620   -3.7830    1.9850 c         1 MOL      0.389422
     72 O13         0.3460   -2.9860    1.1460 o         1 MOL     -0.501172
     73 C24         0.3360   -6.2810    1.6420 c3        1 MOL      0.596867
     74 C25        -0.7190   -7.4130    1.7690 c3        1 MOL     -0.591023
     75 O14         0.6220   -5.9970    0.3200 oh        1 MOL     -0.627548
     76 H29        -1.6540   -3.9550    1.6230 hn        1 MOL      0.328372
     77 H30         0.0330   -5.0370    3.5260 h1        1 MOL      0.123310
     78 H31         1.2930   -6.5830    2.0730 h1        1 MOL     -0.018986
     79 H32        -0.1740   -5.5970   -0.0270 ho        1 MOL      0.333894
     80 H33        -1.6810   -7.0870    1.3580 hc        1 MOL      0.152252
     81 H34        -0.4060   -8.2070    1.1060 hc        1 MOL      0.152252
     82 H35        -0.7780   -7.7380    2.8100 hc        1 MOL      0.152252
     83 N9          1.9830   -3.6630    2.4720 n         1 MOL     -0.036217
     84 C26         2.9700   -2.5720    2.1100 c3        1 MOL     -0.283049
     85 C27         3.9640   -3.0350    1.0950 c         1 MOL      0.426560
     86 O15         4.7900   -3.9440    1.3460 o         1 MOL     -0.544496
     87 C28         3.7020   -2.0390    3.4100 c3        1 MOL      0.171486
     88 C29         4.6520   -0.9650    2.9650 c3        1 MOL      0.300464
     89 C30         2.7650   -1.6180    4.5550 c3        1 MOL     -0.335465
     90 C31         5.4920   -0.3250    4.0350 c3        1 MOL     -0.468012
     91 H36         2.3770   -4.3930    3.0380 hn        1 MOL      0.214696
     92 H37         2.4060   -1.7030    1.7460 h1        1 MOL      0.158161
     93 H38         4.3880   -2.7760    3.8420 hc        1 MOL     -0.025692
     94 H39         4.0670   -0.1300    2.5760 hc        1 MOL     -0.024365
     95 H40         5.2660   -1.3700    2.1640 hc        1 MOL     -0.024365
     96 H41         2.2050   -0.7400    4.2270 hc        1 MOL      0.077767
     97 H42         2.1870   -2.4930    4.8540 hc        1 MOL      0.077767
     98 H43         3.2710   -1.2750    5.4680 hc        1 MOL      0.077767
     99 H44         4.8460    0.2580    4.6760 hc        1 MOL      0.099621
    100 H45         6.0290   -1.0640    4.6340 hc        1 MOL      0.099621
    101 H46         6.3260    0.2240    3.5950 hc        1 MOL      0.099621
    102 N10         3.9650   -2.3670   -0.0480 n         1 MOL     -0.259416
    103 C32         4.6890   -2.8190   -1.2950 c3        1 MOL      0.263251
    104 C33         5.7670   -1.8120   -1.7920 c         1 MOL      0.418628
    105 O16         6.2640   -1.8560   -2.9270 o         1 MOL     -0.545372
    106 C34         3.8260   -3.3250   -2.4540 c3        1 MOL     -0.208211
    107 C35         2.5220   -2.6330   -2.6350 c         1 MOL      0.713550
    108 O17         2.4800   -1.7740   -3.5780 o         1 MOL     -0.685269
    109 O18         1.4950   -2.9140   -1.9600 o         1 MOL     -0.685269
    110 H47         3.1900   -1.7570   -0.2690 hn        1 MOL      0.135463
    111 H48         5.3950   -3.5700   -0.9340 h1        1 MOL      0.017334
    112 H49         3.7500   -4.4010   -2.2940 hc        1 MOL      0.051529
    113 H50         4.3270   -3.4090   -3.4190 hc        1 MOL      0.051529
    114 N11         6.0890   -0.7720   -0.9670 n         1 MOL     -0.347995
    115 C36         6.9170    0.3310   -1.3190 c3        1 MOL      0.335241
    116 C37         6.3700    1.6930   -0.6410 c         1 MOL      0.272558
    117 O19         6.0130    1.5410    0.4960 o         1 MOL     -0.471431
    118 C38         8.3290    0.0160   -0.8020 c3        1 MOL     -0.464665
    119 C39         9.2660    1.1780   -0.8220 ca        1 MOL      0.151859
    120 C40         9.4340    1.9040    0.3750 ca        1 MOL     -0.149706
    121 C41         9.9510    1.4690   -2.0070 ca        1 MOL     -0.149706
    122 C42        10.1640    3.1290    0.2820 ca        1 MOL     -0.188113
    123 C43        10.7040    2.6680   -2.0590 ca        1 MOL     -0.188113
    124 C44        10.6260    3.5290   -0.9480 ca        1 MOL     -0.005898
    125 H51         5.6960   -0.8340   -0.0350 hn        1 MOL      0.163724
    126 H52         7.0010    0.4240   -2.3990 h1        1 MOL      0.025381
    127 H53         8.8240   -0.6250   -1.5370 hc        1 MOL      0.149266
    128 H54         8.2420   -0.3630    0.2110 hc        1 MOL      0.149266
    129 H55         9.0170    1.5690    1.3120 ha        1 MOL      0.135286
    130 H56         9.8500    0.8310   -2.8730 ha        1 MOL      0.135286
    131 H57        10.2090    3.8080    1.1210 ha        1 MOL      0.126423
    132 H58        11.1880    2.9220   -2.9880 ha        1 MOL      0.126423
    133 H59        11.1790    4.4600   -1.0000 ha        1 MOL      0.062624
    134 N12         6.4280    2.8670   -1.3260 n         1 MOL      0.020055
    135 C45         6.3940    4.2570   -0.6920 c3        1 MOL     -0.052876
    136 C46         5.1130    4.6530    0.1600 c         1 MOL      0.392694
    137 O20         4.9360    5.7600    0.6880 o         1 MOL     -0.533732
    138 C47         6.6930    5.1460   -1.8870 c3        1 MOL     -0.070030
    139 C48         6.2670    4.3210   -3.1090 c3        1 MOL      0.025717
    140 C49         6.6710    2.9620   -2.6950 c3        1 MOL     -0.269057
    141 H60         7.2520    4.2980   -0.0210 h1        1 MOL      0.076784
    142 H61         6.1310    6.0720   -1.8110 hc        1 MOL      0.045012
    143 H62         7.7530    5.3880   -1.9160 hc        1 MOL      0.045012
    144 H63         5.1820    4.4050   -3.1300 hc        1 MOL      0.036103
    145 H64         6.6470    4.6790   -4.0530 hc        1 MOL      0.036103
    146 H65         6.0360    2.2290   -3.1860 h1        1 MOL      0.104766
    147 H66         7.7360    2.7770   -2.8470 h1        1 MOL      0.104766
    148 N13         4.1060    3.8060    0.2210 n         1 MOL     -0.131287
    149 C50         2.8040    4.1810    0.7680 c3        1 MOL     -0.196565
    150 C51         2.7950    4.4500    2.2190 c         1 MOL      0.527826
    151 O21         1.9160    5.1420    2.7580 o         1 MOL     -0.544327
    152 C52         1.7600    3.0430    0.3770 c3        1 MOL      0.016803
    153 C53         1.8950    1.8030    1.2070 c3        1 MOL      0.106983
    154 C54         1.0440    0.6040    0.6600 c         1 MOL      0.537637
    155 O22         1.5960   -0.1690   -0.1920 o         1 MOL     -0.677342
    156 O23        -0.1240    0.4340    0.9660 o         1 MOL     -0.677342
    157 H67         4.2890    2.8970   -0.1670 hn        1 MOL      0.177908
    158 H68         2.3650    5.0390    0.2630 h1        1 MOL      0.144239
    159 H69         1.9710    2.8090   -0.6700 hc        1 MOL      0.034935
    160 H70         0.7890    3.5230    0.4760 hc        1 MOL      0.034935
    161 H71         1.5450    2.0160    2.2180 hc        1 MOL     -0.034920
    162 H72         2.8970    1.3990    1.3400 hc        1 MOL     -0.034920
    163 N14         3.8490    4.0980    2.9710 n         1 MOL     -0.182638
    164 C55         3.9000    4.5170    4.4250 c3        1 MOL     -0.217869
    165 H73         4.9390    4.5890    4.7450 h1        1 MOL      0.094592
    166 H74         3.4160    5.4880    4.5410 h1        1 MOL      0.094592
    167 H75         3.3820    3.7770    5.0360 h1        1 MOL      0.094592
    168 H76         4.6420    3.5750    2.6270 hn        1 MOL      0.189858
    169 Ca1        -0.5250   -1.6410   -0.8350 Ca        1 MOL      1.765606
    170 O24        -0.2390   -1.2430   -3.6110 oh        1 MOL     -0.976421
    171 H77         0.6500   -1.4720   -3.9030 ho        1 MOL      0.437632
    172 H78        -0.6930   -0.9740   -4.4100 ho        1 MOL      0.437632
    173 O25        -2.3330   -1.8650    1.2120 oh        1 MOL     -0.976421
    174 H79        -1.9860   -1.3360    1.9280 ho        1 MOL      0.437632
    175 H80        -3.2900   -1.7620    1.2750 ho        1 MOL      0.437632
@<TRIPOS>BOND
     1    1    2 1   
     2    1    4 1   
     3    1    5 1   
     4    1    6 1   
     5    2    3 2   
     6    2    7 1   
     7    7    8 1   
     8    7   15 1   
     9    8    9 1   
    10    8   11 1   
    11    8   16 1   
    12    9   10 2   
    13    9   19 1   
    14   11   12 1   
    15   11   17 1   
    16   11   18 1   
    17   12   13 1   
    18   12   14 1   
    19   19   20 1   
    20   19   24 1   
    21   20   21 1   
    22   20   23 1   
    23   20   25 1   
    24   21   22 2   
    25   21   29 1   
    26   23   26 1   
    27   23   27 1   
    28   23   28 1   
    29   29   30 1   
    30   29   37 1   
    31   30   31 1   
    32   30   33 1   
    33   30   38 1   
    34   31   32 2   
    35   31   41 1   
    36   33   34 1   
    37   33   39 1   
    38   33   40 1   
    39   34   35 1   
    40   34   36 1   
    41   41   42 1   
    42   41   45 1   
    43   42   43 1   
    44   42   46 1   
    45   42   47 1   
    46   43   44 2   
    47   43   48 1   
    48   48   49 1   
    49   48   56 1   
    50   49   50 1   
    51   49   52 1   
    52   49   57 1   
    53   50   51 2   
    54   50   62 1   
    55   52   53 1   
    56   52   58 1   
    57   52   59 1   
    58   53   54 1   
    59   53   55 2   
    60   54   60 1   
    61   54   61 1   
    62   62   63 1   
    63   62   66 1   
    64   63   64 1   
    65   63   67 1   
    66   63   68 1   
    67   64   65 2   
    68   64   69 1   
    69   69   70 1   
    70   69   76 1   
    71   70   71 1   
    72   70   73 1   
    73   70   77 1   
    74   71   72 2   
    75   71   83 1   
    76   73   74 1   
    77   73   75 1   
    78   73   78 1   
    79   74   80 1   
    80   74   81 1   
    81   74   82 1   
    82   75   79 1   
    83   83   84 1   
    84   83   91 1   
    85   84   85 1   
    86   84   87 1   
    87   84   92 1   
    88   85   86 2   
    89   85  102 1   
    90   87   88 1   
    91   87   89 1   
    92   87   93 1   
    93   88   90 1   
    94   88   94 1   
    95   88   95 1   
    96   89   96 1   
    97   89   97 1   
    98   89   98 1   
    99   90   99 1   
   100   90  100 1   
   101   90  101 1   
   102  102  103 1   
   103  102  110 1   
   104  103  104 1   
   105  103  106 1   
   106  103  111 1   
   107  104  105 2   
   108  104  114 1   
   109  106  107 1   
   110  106  112 1   
   111  106  113 1   
   112  107  108 1   
   113  107  109 1   
   114  114  115 1   
   115  114  125 1   
   116  115  116 1   
   117  115  118 1   
   118  115  126 1   
   119  116  117 2   
   120  116  134 1   
   121  118  119 1   
   122  118  127 1   
   123  118  128 1   
   124  119  120 ar  
   125  119  121 ar  
   126  120  122 ar  
   127  120  129 1   
   128  121  123 ar  
   129  121  130 1   
   130  122  124 ar  
   131  122  131 1   
   132  123  124 ar  
   133  123  132 1   
   134  124  133 1   
   135  134  135 1   
   136  134  140 1   
   137  135  136 1   
   138  135  138 1   
   139  135  141 1   
   140  136  137 2   
   141  136  148 1   
   142  138  139 1   
   143  138  142 1   
   144  138  143 1   
   145  139  140 1   
   146  139  144 1   
   147  139  145 1   
   148  140  146 1   
   149  140  147 1   
   150  148  149 1   
   151  148  157 1   
   152  149  150 1   
   153  149  152 1   
   154  149  158 1   
   155  150  151 2   
   156  150  163 1   
   157  152  153 1   
   158  152  159 1   
   159  152  160 1   
   160  153  154 1   
   161  153  161 1   
   162  153  162 1   
   163  154  155 1   
   164  154  156 1   
   165  163  164 1   
   166  163  168 1   
   167  164  165 1   
   168  164  166 1   
   169  164  167 1   
   170  170  171 1   
   171  170  172 1   
   172  173  174 1   
   173  173  175 1   
@<TRIPOS>SUBSTRUCTURE
     1 MOL         1 TEMP              0 ****  ****    0 ROOT
