@<TRIPOS>MOLECULE
MOL
  181   177     1     0     0
SMALL
resp


@<TRIPOS>ATOM
      1 C1         -2.9000   -2.2840   -4.5340 c3        1 MOL     -0.446624
      2 C2         -4.1720   -1.5300   -4.1370 c         1 MOL      0.640555
      3 O1         -4.2180   -0.2830   -3.9820 o         1 MOL     -0.588327
      4 H1         -2.3310   -1.6870   -5.2470 hc        1 MOL      0.118547
      5 H2         -2.2930   -2.4660   -3.6470 hc        1 MOL      0.118547
      6 H3         -3.1700   -3.2360   -4.9920 hc        1 MOL      0.118547
      7 N1         -5.2130   -2.2680   -3.8420 n         1 MOL     -0.337967
      8 C3         -6.5760   -1.8450   -3.6430 c3        1 MOL     -0.011165
      9 C4         -7.0760   -2.1910   -2.2150 c         1 MOL      0.513282
     10 O2         -6.8840   -3.3110   -1.6910 o         1 MOL     -0.537851
     11 C5         -7.5320   -2.5220   -4.7040 c3        1 MOL      0.037077
     12 C6         -8.8310   -1.8010   -4.9400 c         1 MOL      0.667777
     13 O3         -9.8940   -2.4550   -4.9820 o         1 MOL     -0.725179
     14 O4         -8.7950   -0.5930   -5.2980 o         1 MOL     -0.725179
     15 H4         -5.1310   -3.2710   -3.8550 hn        1 MOL      0.233778
     16 H5         -6.6730   -0.7650   -3.7780 h1        1 MOL      0.032948
     17 H6         -7.8070   -3.5600   -4.4840 hc        1 MOL     -0.036461
     18 H7         -6.8930   -2.5550   -5.5900 hc        1 MOL     -0.036461
     19 N2         -7.5930   -1.2260   -1.4440 n         1 MOL     -0.435377
     20 C7         -8.0320   -1.4340   -0.0590 c3        1 MOL      0.133734
     21 C8         -6.8980   -1.6950    1.0160 c         1 MOL      0.732287
     22 O5         -7.3110   -2.1530    2.0690 o         1 MOL     -0.609002
     23 C9         -8.8240   -0.1550    0.3800 c3        1 MOL     -0.349479
     24 H8         -8.0500   -0.4720   -1.9370 hn        1 MOL      0.273469
     25 H9         -8.6430   -2.3330   -0.0820 h1        1 MOL      0.076375
     26 H10        -8.1540    0.7070    0.3800 hc        1 MOL      0.094446
     27 H11        -9.6700    0.0780   -0.2640 hc        1 MOL      0.094446
     28 H12        -9.0620   -0.2850    1.4330 hc        1 MOL      0.094446
     29 N3         -5.6240   -1.4980    0.8180 n         1 MOL     -0.978246
     30 C10        -4.4840   -1.7760    1.6920 c3        1 MOL      0.775640
     31 C11        -4.5730   -1.0360    3.0670 c         1 MOL      0.095906
     32 O6         -3.6860   -1.2250    3.9380 o         1 MOL     -0.434492
     33 C12        -4.1920   -3.2750    1.8190 c3        1 MOL     -0.332134
     34 C13        -2.7470   -3.6380    2.0640 c         1 MOL      0.719327
     35 O7         -2.4160   -4.7800    2.5140 o         1 MOL     -0.747214
     36 O8         -1.8660   -2.8190    1.7850 o         1 MOL     -0.747214
     37 H13        -5.3280   -1.2400   -0.1130 hn        1 MOL      0.360102
     38 H14        -3.5910   -1.3300    1.2510 h1        1 MOL     -0.002789
     39 H15        -4.4660   -3.7110    0.8630 hc        1 MOL      0.085893
     40 H16        -4.9380   -3.7080    2.4950 hc        1 MOL      0.085893
     41 N4         -5.5510   -0.1310    3.2790 n         1 MOL     -0.002845
     42 C14        -5.8690    0.5900    4.4660 c3        1 MOL     -0.236192
     43 C15        -4.8180    1.6220    4.8900 c         1 MOL      0.425210
     44 O9         -4.8330    2.0830    6.0390 o         1 MOL     -0.492569
     45 H17        -6.2550   -0.1270    2.5520 hn        1 MOL      0.192592
     46 H18        -5.8990   -0.1550    5.2560 h1        1 MOL      0.110912
     47 H19        -6.8690    1.0140    4.4000 h1        1 MOL      0.110912
     48 N5         -4.0960    2.1490    3.8730 n         1 MOL     -0.106216
     49 C16        -2.9870    3.0990    3.9340 c3        1 MOL     -0.188479
     50 C17        -2.9130    3.9990    2.7080 c         1 MOL      0.495770
     51 O10        -2.9210    3.6190    1.5550 o         1 MOL     -0.416397
     52 C18        -1.5690    2.4960    4.1440 c3        1 MOL     -0.112906
     53 C19        -1.6170    1.5090    5.2540 c         1 MOL      0.808396
     54 N6         -1.3540    0.2610    4.9860 n         1 MOL     -0.890590
     55 O11        -1.6200    1.8540    6.4140 o         1 MOL     -0.618108
     56 H20        -4.3570    1.8860    2.9360 hn        1 MOL      0.088898
     57 H21        -3.1740    3.6910    4.8310 h1        1 MOL      0.059359
     58 H22        -0.7600    3.1730    4.4260 hc        1 MOL      0.074346
     59 H23        -1.2450    1.9920    3.2420 hc        1 MOL      0.074346
     60 H24        -1.4910   -0.2420    4.1150 hn        1 MOL      0.369563
     61 H25        -1.2910   -0.3240    5.8160 hn        1 MOL      0.369563
     62 N7         -2.5560    5.2790    2.8550 n         1 MOL     -0.323312
     63 C20        -2.4000    6.3320    1.8960 c3        1 MOL     -0.382444
     64 C21        -1.1200    6.2140    0.9940 c         1 MOL      0.656501
     65 O12         0.0090    5.8580    1.4100 o         1 MOL     -0.506423
     66 H26        -2.3870    5.6320    3.7760 hn        1 MOL      0.294718
     67 H27        -2.2250    7.2360    2.4870 h1        1 MOL      0.151477
     68 H28        -3.2770    6.4110    1.2570 h1        1 MOL      0.151477
     69 N8         -1.2940    6.5600   -0.3270 n         1 MOL     -0.386162
     70 C22        -0.1280    6.8690   -1.1290 c3        1 MOL     -0.410016
     71 C23         0.5680    5.6650   -1.7950 c         1 MOL      0.563045
     72 O13         1.6670    5.8450   -2.2950 o         1 MOL     -0.579614
     73 C24        -0.3880    8.0070   -2.1080 c3        1 MOL      0.632456
     74 C25        -1.1440    7.4820   -3.3860 c3        1 MOL     -0.428421
     75 O14        -1.2100    8.9770   -1.5750 oh        1 MOL     -0.673925
     76 H29        -2.2010    6.9360   -0.5480 hn        1 MOL      0.239215
     77 H30         0.7070    7.2050   -0.5000 h1        1 MOL      0.154606
     78 H31         0.5890    8.3520   -2.4280 h1        1 MOL      0.003433
     79 H32        -2.0300    8.5490   -1.3020 ho        1 MOL      0.395512
     80 H33        -1.6720    8.3180   -3.8460 hc        1 MOL      0.091114
     81 H34        -0.4040    7.0320   -4.0520 hc        1 MOL      0.091114
     82 H35        -1.9490    6.7760   -3.2170 hc        1 MOL      0.091114
     83 N9         -0.0630    4.4820   -1.9100 n         1 MOL     -0.159317
     84 C26         0.4130    3.2580   -2.6160 c3        1 MOL     -0.032227
     85 C27         0.6990    2.1970   -1.6090 c         1 MOL      0.294709
     86 O15        -0.0290    2.0740   -0.6500 o         1 MOL     -0.434557
     87 C28        -0.6980    2.8180   -3.6200 c3        1 MOL      0.171080
     88 C29        -2.1410    2.4030   -3.0690 c3        1 MOL     -0.148758
     89 C30        -0.7990    3.8880   -4.7440 c3        1 MOL     -0.328940
     90 C31        -3.0380    3.4100   -2.2370 c3        1 MOL     -0.096492
     91 H36        -0.8590    4.3690   -1.2950 hn        1 MOL      0.231580
     92 H37         1.3280    3.4410   -3.1820 h1        1 MOL      0.071339
     93 H38        -0.3550    1.9150   -4.1200 hc        1 MOL     -0.014602
     94 H39        -2.0280    1.4900   -2.4820 hc        1 MOL      0.104826
     95 H40        -2.7500    2.1650   -3.9530 hc        1 MOL      0.104826
     96 H41         0.1840    4.2030   -5.0820 hc        1 MOL      0.073876
     97 H42        -1.3980    3.4800   -5.5550 hc        1 MOL      0.073876
     98 H43        -1.3170    4.7680   -4.3530 hc        1 MOL      0.073876
     99 H44        -3.9870    2.9030   -2.0780 hc        1 MOL      0.017978
    100 H45        -2.5990    3.7720   -1.3090 hc        1 MOL      0.017978
    101 H46        -3.2790    4.3180   -2.7930 hc        1 MOL      0.017978
    102 N10         1.7680    1.3910   -1.6080 n         1 MOL     -0.261221
    103 C32         1.9210    0.3090   -0.6550 c3        1 MOL     -0.085342
    104 C33         3.3770    0.1400   -0.2850 c         1 MOL      0.574925
    105 O16         3.7990   -0.9470    0.1190 o         1 MOL     -0.578147
    106 C34         1.1290   -0.9550   -1.1230 c3        1 MOL     -0.069374
    107 C35         0.8490   -2.0390   -0.0140 c         1 MOL      0.818828
    108 O17         0.9200   -1.8110    1.1900 o         1 MOL     -0.772371
    109 O18         0.3550   -3.1090   -0.3600 o         1 MOL     -0.772371
    110 H47         2.4730    1.3910   -2.3370 hn        1 MOL      0.213074
    111 H48         1.4280    0.6300    0.2620 h1        1 MOL      0.098055
    112 H49         1.5930   -1.3980   -2.0120 hc        1 MOL      0.040185
    113 H50         0.1690   -0.6190   -1.5270 hc        1 MOL      0.040185
    114 N11         4.2020    1.1940   -0.4810 n         1 MOL     -0.421506
    115 C36         5.6130    1.2250   -0.0120 c3        1 MOL      0.250134
    116 C37         6.5430    0.1570   -0.6950 c         1 MOL      0.283943
    117 O19         6.7380    0.1130   -1.9050 o         1 MOL     -0.534996
    118 C38         6.1510    2.6290   -0.2090 c3        1 MOL     -0.204927
    119 C39         7.2210    3.0890    0.7400 ca        1 MOL      0.051176
    120 C40         6.9580    3.8560    1.8610 ca        1 MOL     -0.137592
    121 C41         8.5340    2.5610    0.4930 ca        1 MOL     -0.137592
    122 C42         8.0620    4.1270    2.7680 ca        1 MOL     -0.119625
    123 C43         9.5700    2.8070    1.3940 ca        1 MOL     -0.119625
    124 C44         9.2920    3.5590    2.5450 ca        1 MOL     -0.116257
    125 H51         3.8300    2.0500   -0.8780 hn        1 MOL      0.225803
    126 H52         5.5960    1.0230    1.0520 h1        1 MOL      0.002294
    127 H53         5.2980    3.3120   -0.1540 hc        1 MOL      0.089625
    128 H54         6.4670    2.7470   -1.2410 hc        1 MOL      0.089625
    129 H55         5.9770    4.2660    2.0090 ha        1 MOL      0.127641
    130 H56         8.7300    1.9060   -0.3470 ha        1 MOL      0.127641
    131 H57         7.8390    4.6200    3.7000 ha        1 MOL      0.113173
    132 H58        10.5630    2.4720    1.1210 ha        1 MOL      0.113173
    133 H59        10.0070    3.6990    3.3340 ha        1 MOL      0.098785
    134 N12         7.2210   -0.6890    0.0490 n         1 MOL      0.038002
    135 C45         8.1730   -1.6850   -0.5100 c3        1 MOL      0.128774
    136 C46         7.5490   -2.7330   -1.4150 c         1 MOL      0.195445
    137 O20         8.2020   -3.3590   -2.2370 o         1 MOL     -0.491199
    138 C47         8.7770   -2.4290    0.7040 c3        1 MOL     -0.197488
    139 C48         8.8150   -1.2720    1.7160 c3        1 MOL     -0.028342
    140 C49         7.5150   -0.5260    1.4610 c3        1 MOL     -0.035671
    141 H60         8.9440   -1.0680   -0.9650 h1        1 MOL      0.060661
    142 H61         8.0800   -3.1990    1.0410 hc        1 MOL      0.092247
    143 H62         9.8060   -2.6800    0.4420 hc        1 MOL      0.092247
    144 H63         8.8340   -1.5630    2.7570 hc        1 MOL      0.021714
    145 H64         9.6280   -0.5720    1.5260 hc        1 MOL      0.021714
    146 H65         6.6670   -0.9340    2.0100 h1        1 MOL      0.042237
    147 H66         7.6470    0.5190    1.7290 h1        1 MOL      0.042237
    148 N13         6.2090   -2.9480   -1.4720 n         1 MOL     -0.050436
    149 C50         5.5160   -3.6950   -2.5230 c3        1 MOL     -0.167138
    150 C51         5.3320   -2.9440   -3.7960 c         1 MOL      0.472205
    151 O21         5.1210   -3.5590   -4.8200 o         1 MOL     -0.561613
    152 C52         4.1460   -4.2180   -1.9860 c3        1 MOL      0.200018
    153 C53         4.1610   -4.8250   -0.5460 c3        1 MOL     -0.218611
    154 C54         2.8400   -5.4190   -0.0780 c         1 MOL      0.781913
    155 O22         2.2640   -6.2090   -0.8160 o         1 MOL     -0.723872
    156 O23         2.4330   -5.1480    1.0540 o         1 MOL     -0.723872
    157 H67         5.6360   -2.4810   -0.7880 hn        1 MOL      0.156833
    158 H68         6.0140   -4.6230   -2.8020 h1        1 MOL      0.109922
    159 H69         3.6970   -4.9210   -2.6980 hc        1 MOL     -0.014827
    160 H70         3.4130   -3.4110   -1.9430 hc        1 MOL     -0.014827
    161 H71         4.4640   -3.9950    0.0940 hc        1 MOL     -0.002079
    162 H72         4.9210   -5.5810   -0.3340 hc        1 MOL     -0.002079
    163 N14         5.3060   -1.6470   -3.6700 n         1 MOL     -0.121359
    164 C55         4.8060   -0.7460   -4.6800 c3        1 MOL     -0.246054
    165 H73         4.8920   -1.2160   -5.6600 h1        1 MOL      0.092429
    166 H74         3.7590   -0.5180   -4.4790 h1        1 MOL      0.092429
    167 H75         5.3880    0.1760   -4.6670 h1        1 MOL      0.092429
    168 H76         5.5080   -1.2820   -2.7460 hn        1 MOL      0.170279
    169 Ca1         0.2410   -4.2790    2.1820 Ca        1 MOL      1.735727
    170 O24         2.1090   -4.2480    3.9880 oh        1 MOL     -0.807662
    171 O25         0.6230   -6.8650    3.0620 oh        1 MOL     -0.807662
    172 H77         2.9840   -4.0380    3.6720 ho        1 MOL      0.395177
    173 H78         1.2020   -7.1150    3.7860 ho        1 MOL      0.395177
    174 H79         2.1370   -4.0500    4.9200 ho        1 MOL      0.395177
    175 H80        -0.0110   -7.5810    3.0070 ho        1 MOL      0.395177
    176 O26        -0.8240   -3.4910    4.6460 oh        1 MOL     -0.807662
    177 H81        -1.1380   -2.5990    4.7580 ho        1 MOL      0.395177
    178 H82        -0.8830   -3.8820    5.5140 ho        1 MOL      0.395177
    179 O27        -0.4630   -5.8230    0.1960 oh        1 MOL     -0.807662
    180 H83         0.2280   -6.1210   -0.3980 ho        1 MOL      0.395177
    181 H84        -1.2420   -6.2850   -0.0860 ho        1 MOL      0.395177
@<TRIPOS>BOND
     1    1    2 1   
     2    1    4 1   
     3    1    5 1   
     4    1    6 1   
     5    2    3 2   
     6    2    7 1   
     7    7    8 1   
     8    7   15 1   
     9    8    9 1   
    10    8   11 1   
    11    8   16 1   
    12    9   10 2   
    13    9   19 1   
    14   11   12 1   
    15   11   17 1   
    16   11   18 1   
    17   12   13 1   
    18   12   14 1   
    19   19   20 1   
    20   19   24 1   
    21   20   21 1   
    22   20   23 1   
    23   20   25 1   
    24   21   22 2   
    25   21   29 1   
    26   23   26 1   
    27   23   27 1   
    28   23   28 1   
    29   29   30 1   
    30   29   37 1   
    31   30   31 1   
    32   30   33 1   
    33   30   38 1   
    34   31   32 2   
    35   31   41 1   
    36   33   34 1   
    37   33   39 1   
    38   33   40 1   
    39   34   35 1   
    40   34   36 1   
    41   41   42 1   
    42   41   45 1   
    43   42   43 1   
    44   42   46 1   
    45   42   47 1   
    46   43   44 2   
    47   43   48 1   
    48   48   49 1   
    49   48   56 1   
    50   49   50 1   
    51   49   52 1   
    52   49   57 1   
    53   50   51 2   
    54   50   62 1   
    55   52   53 1   
    56   52   58 1   
    57   52   59 1   
    58   53   54 1   
    59   53   55 2   
    60   54   60 1   
    61   54   61 1   
    62   62   63 1   
    63   62   66 1   
    64   63   64 1   
    65   63   67 1   
    66   63   68 1   
    67   64   65 2   
    68   64   69 1   
    69   69   70 1   
    70   69   76 1   
    71   70   71 1   
    72   70   73 1   
    73   70   77 1   
    74   71   72 2   
    75   71   83 1   
    76   73   74 1   
    77   73   75 1   
    78   73   78 1   
    79   74   80 1   
    80   74   81 1   
    81   74   82 1   
    82   75   79 1   
    83   83   84 1   
    84   83   91 1   
    85   84   85 1   
    86   84   87 1   
    87   84   92 1   
    88   85   86 2   
    89   85  102 1   
    90   87   88 1   
    91   87   89 1   
    92   87   93 1   
    93   88   90 1   
    94   88   94 1   
    95   88   95 1   
    96   89   96 1   
    97   89   97 1   
    98   89   98 1   
    99   90   99 1   
   100   90  100 1   
   101   90  101 1   
   102  102  103 1   
   103  102  110 1   
   104  103  104 1   
   105  103  106 1   
   106  103  111 1   
   107  104  105 2   
   108  104  114 1   
   109  106  107 1   
   110  106  112 1   
   111  106  113 1   
   112  107  108 1   
   113  107  109 1   
   114  114  115 1   
   115  114  125 1   
   116  115  116 1   
   117  115  118 1   
   118  115  126 1   
   119  116  117 2   
   120  116  134 1   
   121  118  119 1   
   122  118  127 1   
   123  118  128 1   
   124  119  120 ar  
   125  119  121 ar  
   126  120  122 ar  
   127  120  129 1   
   128  121  123 ar  
   129  121  130 1   
   130  122  124 ar  
   131  122  131 1   
   132  123  124 ar  
   133  123  132 1   
   134  124  133 1   
   135  134  135 1   
   136  134  140 1   
   137  135  136 1   
   138  135  138 1   
   139  135  141 1   
   140  136  137 2   
   141  136  148 1   
   142  138  139 1   
   143  138  142 1   
   144  138  143 1   
   145  139  140 1   
   146  139  144 1   
   147  139  145 1   
   148  140  146 1   
   149  140  147 1   
   150  148  149 1   
   151  148  157 1   
   152  149  150 1   
   153  149  152 1   
   154  149  158 1   
   155  150  151 2   
   156  150  163 1   
   157  152  153 1   
   158  152  159 1   
   159  152  160 1   
   160  153  154 1   
   161  153  161 1   
   162  153  162 1   
   163  154  155 1   
   164  154  156 1   
   165  163  164 1   
   166  163  168 1   
   167  164  165 1   
   168  164  166 1   
   169  164  167 1   
   170  170  172 1   
   171  170  174 1   
   172  171  173 1   
   173  171  175 1   
   174  176  177 1   
   175  176  178 1   
   176  179  180 1   
   177  179  181 1   
@<TRIPOS>SUBSTRUCTURE
     1 MOL         1 TEMP              0 ****  ****    0 ROOT
