@<TRIPOS>MOLECULE
MOL
  195   189     1     0     0
SMALL
resp


@<TRIPOS>ATOM
      1 C1          9.4990    4.5150   -4.1200 c3        1 MOL     -0.346131
      2 C2          9.0320    3.9080   -2.7850 c         1 MOL      0.722686
      3 O1          8.2010    3.0200   -2.7350 o         1 MOL     -0.555807
      4 H1         10.5840    4.4270   -4.1980 hc        1 MOL      0.091622
      5 H2          9.0310    3.9800   -4.9460 hc        1 MOL      0.091622
      6 H3          9.2170    5.5670   -4.1600 hc        1 MOL      0.091622
      7 N1          9.3960    4.5780   -1.6770 n         1 MOL     -0.581344
      8 C3          8.8080    4.3550   -0.3310 c3        1 MOL      0.137444
      9 C4          9.0780    2.9890    0.3160 c         1 MOL      0.544618
     10 O2          8.4970    2.5900    1.2920 o         1 MOL     -0.535875
     11 C5          7.4480    4.8720   -0.3100 c3        1 MOL     -0.215710
     12 C6          7.2550    6.3770   -0.7110 c         1 MOL      0.744225
     13 O3          8.2590    7.1630   -0.7080 o         1 MOL     -0.671081
     14 O4          6.0980    6.7470   -0.9810 o         1 MOL     -0.671081
     15 H4          9.8400    5.4770   -1.8300 hn        1 MOL      0.275104
     16 H5          9.3220    5.0010    0.3670 h1        1 MOL      0.033444
     17 H6          7.1190    4.7910    0.7270 hc        1 MOL      0.054708
     18 H7          6.8890    4.2260   -0.9950 hc        1 MOL      0.054708
     19 N2         10.1240    2.4220   -0.2240 n         1 MOL     -0.458108
     20 C7         10.5890    1.0130    0.0380 c3        1 MOL      0.380493
     21 C8          9.4590   -0.0290    0.0620 c         1 MOL      0.359307
     22 O5          9.5880   -1.1320    0.6430 o         1 MOL     -0.536112
     23 C9         11.5380    0.9120    1.1980 c3        1 MOL     -0.496311
     24 C10        12.8210    1.8040    0.9690 c3        1 MOL      0.208273
     25 C11        13.8360    1.6840    2.1030 c3        1 MOL     -0.075445
     26 C12        15.0160    2.5670    1.7330 c3        1 MOL      0.055620
     27 N3         15.9560    2.7500    2.8810 n4        1 MOL     -0.183111
     28 H8         10.4720    2.8290   -1.0810 hn        1 MOL      0.192260
     29 H9         11.1720    0.7820   -0.8640 h1        1 MOL      0.006285
     30 H10        11.8560   -0.1320    1.2340 hc        1 MOL      0.140178
     31 H11        10.9720    1.1570    2.0970 hc        1 MOL      0.140178
     32 H12        12.5240    2.8390    0.7830 hc        1 MOL     -0.010621
     33 H13        13.2420    1.5690   -0.0090 hc        1 MOL     -0.010621
     34 H14        14.2150    0.6650    2.1380 hc        1 MOL      0.042515
     35 H15        13.5720    2.1020    3.0770 hc        1 MOL      0.042515
     36 H16        14.6280    3.5680    1.5390 hx        1 MOL      0.056454
     37 H17        15.4190    2.1930    0.7900 hx        1 MOL      0.056454
     38 H18        16.0880    1.9490    3.4810 hn        1 MOL      0.240586
     39 H19        16.8910    3.0500    2.6390 hn        1 MOL      0.240586
     40 H20        15.6520    3.4420    3.5440 hn        1 MOL      0.240586
     41 N4          8.3390    0.3000   -0.6010 n         1 MOL     -0.369014
     42 C13         7.0530   -0.4930   -0.5000 c3        1 MOL      0.214903
     43 C14         6.8790   -1.5420   -1.6900 c         1 MOL      0.396219
     44 O6          6.7630   -1.0480   -2.8440 o         1 MOL     -0.548690
     45 C15         5.7790    0.3920   -0.3680 c3        1 MOL      0.020827
     46 C16         4.6980   -0.2840    0.5550 c         1 MOL      0.634248
     47 O7          3.6640    0.2630    0.8970 o         1 MOL     -0.782886
     48 O8          4.8460   -1.4530    0.9990 o         1 MOL     -0.782886
     49 H21         8.3320    1.0470   -1.2700 hn        1 MOL      0.203455
     50 H22         7.1110   -0.9630    0.4780 h1        1 MOL      0.127909
     51 H23         5.3410    0.6460   -1.3220 hc        1 MOL      0.025236
     52 H24         6.0300    1.3460    0.1060 hc        1 MOL      0.025236
     53 N5          6.7510   -2.9180   -1.5860 n         1 MOL     -0.317160
     54 C17         6.8670   -3.6550   -0.3220 c3        1 MOL     -0.185822
     55 C18         5.7780   -4.6930   -0.2780 c         1 MOL      0.542191
     56 O9          5.7840   -5.5580   -1.1440 o         1 MOL     -0.546787
     57 H25         6.4540   -3.3940   -2.4310 hn        1 MOL      0.278587
     58 H26         6.8170   -2.9690    0.5270 h1        1 MOL      0.099334
     59 H27         7.7990   -4.2250   -0.2840 h1        1 MOL      0.099334
     60 N6          4.9340   -4.5990    0.7520 n         1 MOL     -0.352804
     61 C19         3.6790   -5.4030    0.9200 c3        1 MOL      0.142357
     62 C20         2.4190   -4.6830    0.5030 c         1 MOL      0.550572
     63 O10         2.3730   -3.4440    0.7160 o         1 MOL     -0.562039
     64 C21         3.5760   -5.9740    2.3590 c3        1 MOL     -0.140765
     65 C22         3.9170   -4.8730    3.4490 c         1 MOL      0.604576
     66 O11         3.7590   -3.6700    3.0580 o         1 MOL     -0.660600
     67 O12         4.2200   -5.0600    4.6480 o         1 MOL     -0.660600
     68 H28         5.0240   -3.7510    1.2870 hn        1 MOL      0.250175
     69 H29         3.6630   -6.2390    0.2310 h1        1 MOL     -0.012887
     70 H30         4.2500   -6.8250    2.4660 hc        1 MOL      0.031258
     71 H31         2.5380   -6.2560    2.5340 hc        1 MOL      0.031258
     72 N7          1.4140   -5.4930    0.0410 n         1 MOL     -0.456703
     73 C23         0.0170   -5.0750   -0.2160 c3        1 MOL     -0.017549
     74 C24        -0.2340   -3.9220   -1.2010 c         1 MOL      0.460679
     75 O13        -1.3780   -3.6190   -1.6200 o         1 MOL     -0.558501
     76 H32         1.6110   -6.4790    0.0730 hn        1 MOL      0.321443
     77 H33        -0.4410   -4.8150    0.7410 h1        1 MOL      0.077040
     78 H34        -0.5890   -5.9210   -0.5280 h1        1 MOL      0.077040
     79 N8          0.7850   -3.2010   -1.5620 n         1 MOL     -0.164940
     80 C25         0.5540   -1.9940   -2.3850 c3        1 MOL     -0.022996
     81 C26         0.0120   -0.7340   -1.6710 c         1 MOL      0.308107
     82 O14         0.2960   -0.5250   -0.5010 o         1 MOL     -0.466869
     83 C27         1.8620   -1.6710   -3.0740 c3        1 MOL      0.227885
     84 C28         3.1240   -1.3100   -2.2860 c3        1 MOL     -0.484958
     85 O15         2.2430   -2.7430   -3.8950 oh        1 MOL     -0.648627
     86 H35         1.6540   -3.2650   -1.0500 hn        1 MOL      0.147797
     87 H36        -0.0900   -2.3360   -3.1870 h1        1 MOL      0.138531
     88 H37         1.6580   -0.8590   -3.7700 h1        1 MOL      0.016455
     89 H38         3.1020   -2.4650   -4.2240 ho        1 MOL      0.426363
     90 H39         3.4890   -2.1300   -1.6690 hc        1 MOL      0.159833
     91 H40         3.9300   -1.2130   -3.0200 hc        1 MOL      0.159833
     92 H41         3.0200   -0.3620   -1.7540 hc        1 MOL      0.159833
     93 N9         -0.7040    0.1520   -2.3870 n         1 MOL     -0.141566
     94 C29        -1.3500    1.3770   -1.8860 c3        1 MOL     -0.269539
     95 C30        -2.6190    0.9780   -1.1840 c         1 MOL      0.540988
     96 O16        -3.1480    1.7470   -0.3880 o         1 MOL     -0.530222
     97 C31        -1.6290    2.3380   -3.1050 c3        1 MOL      0.291013
     98 C32        -0.3540    2.7140   -3.8670 c3        1 MOL     -0.123309
     99 C33        -2.2290    3.6990   -2.6350 c3        1 MOL     -0.490495
    100 C34        -0.4720    3.4160   -5.3050 c3        1 MOL     -0.244366
    101 H42        -1.0890   -0.1270   -3.2780 hn        1 MOL      0.197805
    102 H43        -0.6500    1.9580   -1.2820 h1        1 MOL      0.160549
    103 H44        -2.3100    1.7820   -3.7610 hc        1 MOL     -0.018017
    104 H45         0.1920    1.7820   -4.0500 hc        1 MOL      0.064355
    105 H46         0.3110    3.2390   -3.1820 hc        1 MOL      0.064355
    106 H47        -2.1050    4.4800   -3.3850 hc        1 MOL      0.139093
    107 H48        -3.2860    3.5740   -2.3890 hc        1 MOL      0.139093
    108 H49        -1.6410    4.1220   -1.8160 hc        1 MOL      0.139093
    109 H50         0.5020    3.5520   -5.7680 hc        1 MOL      0.072271
    110 H51        -1.0170    2.8180   -6.0460 hc        1 MOL      0.072271
    111 H52        -1.0030    4.3640   -5.2110 hc        1 MOL      0.072271
    112 N10        -3.1250   -0.2360   -1.3990 n         1 MOL     -0.372308
    113 C35        -4.3010   -0.8400   -0.7380 c3        1 MOL      0.106595
    114 C36        -5.3810   -1.1150   -1.8060 c         1 MOL      0.538845
    115 O17        -5.1160   -1.3600   -3.0110 o         1 MOL     -0.520971
    116 C37        -3.9070   -2.1720   -0.0660 c3        1 MOL      0.324777
    117 C38        -2.6640   -2.0830    0.8940 c3        1 MOL     -0.408311
    118 O18        -4.9640   -2.6900    0.7440 oh        1 MOL     -0.618395
    119 H53        -2.7150   -0.8320   -2.1050 hn        1 MOL      0.214437
    120 H54        -4.6790   -0.1620    0.0240 h1        1 MOL      0.084505
    121 H55        -3.5800   -2.8330   -0.8640 h1        1 MOL     -0.002785
    122 H56        -4.7560   -3.6210    0.8080 ho        1 MOL      0.389040
    123 H57        -2.8500   -1.4330    1.7480 hc        1 MOL      0.110916
    124 H58        -2.3350   -3.1000    1.1240 hc        1 MOL      0.110916
    125 H59        -1.8770   -1.6180    0.2930 hc        1 MOL      0.110916
    126 N11        -6.6450   -1.2580   -1.3370 n         1 MOL     -0.642318
    127 C39        -7.7570   -1.7000   -2.1460 c3        1 MOL      0.318250
    128 C40        -9.0190   -0.8130   -2.0430 c         1 MOL      0.528216
    129 O19        -9.3070   -0.1150   -3.0090 o         1 MOL     -0.569983
    130 C41        -8.1410   -3.2170   -1.8600 c3        1 MOL      0.099500
    131 C42        -9.4760   -3.6510   -2.3650 c3        1 MOL     -0.300239
    132 O20        -8.1660   -3.4050   -0.4350 oh        1 MOL     -0.579580
    133 H60        -6.7620   -1.3650   -0.3430 hn        1 MOL      0.312039
    134 H61        -7.5730   -1.7190   -3.2240 h1        1 MOL      0.025747
    135 H62        -7.3600   -3.8940   -2.2210 h1        1 MOL      0.064368
    136 H63        -7.9720   -4.3440   -0.3870 ho        1 MOL      0.393156
    137 H64        -9.6860   -3.4640   -3.4170 hc        1 MOL      0.082261
    138 H65        -9.4700   -4.7390   -2.3620 hc        1 MOL      0.082261
    139 H66       -10.2840   -3.2550   -1.7410 hc        1 MOL      0.082261
    140 N12        -9.7430   -0.7730   -0.9550 n         1 MOL     -0.365281
    141 C43       -10.8870    0.1740   -0.7120 c3        1 MOL      0.109899
    142 C44       -10.7060    0.7050    0.6780 c         1 MOL      0.408350
    143 O21       -10.4590   -0.0610    1.6130 o         1 MOL     -0.495632
    144 C45       -12.2320   -0.5880   -0.8260 c3        1 MOL     -0.299354
    145 C46       -13.4780    0.3260   -0.6570 c3        1 MOL      0.229442
    146 C47       -14.7030   -0.4670   -0.3390 c3        1 MOL     -0.051943
    147 C48       -15.9320    0.4490   -0.5320 c3        1 MOL      0.107174
    148 N13       -17.2420   -0.2460   -0.4240 n4        1 MOL     -0.264030
    149 H67        -9.5170   -1.2420   -0.0830 hn        1 MOL      0.261766
    150 H68       -11.0140    1.0720   -1.3090 h1        1 MOL      0.056993
    151 H69       -12.1480   -1.4000   -0.1000 hc        1 MOL      0.086021
    152 H70       -12.2760   -1.0950   -1.7940 hc        1 MOL      0.086021
    153 H71       -13.6530    0.8030   -1.6240 hc        1 MOL     -0.022479
    154 H72       -13.2940    1.1120    0.0680 hc        1 MOL     -0.022479
    155 H73       -14.6750   -0.7660    0.7130 hc        1 MOL      0.025009
    156 H74       -14.9160   -1.3200   -0.9750 hc        1 MOL      0.025009
    157 H75       -15.7880    0.9520   -1.4820 hx        1 MOL      0.049054
    158 H76       -15.7780    1.2830    0.1500 hx        1 MOL      0.049054
    159 H77       -17.4450   -0.8540   -1.1990 hn        1 MOL      0.240310
    160 H78       -17.4060   -0.8660    0.3530 hn        1 MOL      0.240310
    161 H79       -18.0220    0.4000   -0.3960 hn        1 MOL      0.240310
    162 N14       -10.7750    2.0250    0.9250 n         1 MOL     -0.328040
    163 C49       -10.4210    2.6310    2.1910 c3        1 MOL      0.107467
    164 C50        -8.9560    2.3240    2.5850 c         1 MOL      0.534175
    165 O22        -8.7490    2.0230    3.7480 o         1 MOL     -0.545129
    166 C51       -10.8680    4.0860    2.1960 c3        1 MOL     -0.003246
    167 C52       -10.9640    4.6490    3.5860 c3        1 MOL     -0.256613
    168 C53       -11.5900    6.0810    3.6130 c         1 MOL      0.733290
    169 O23       -11.3490    6.8980    2.6930 o         1 MOL     -0.659676
    170 O24       -12.2680    6.4120    4.6160 o         1 MOL     -0.659676
    171 H80       -10.9710    2.6910    0.1910 hn        1 MOL      0.211601
    172 H81       -10.9320    2.0060    2.9200 h1        1 MOL      0.050155
    173 H82       -11.8430    4.1880    1.7090 hc        1 MOL      0.014734
    174 H83       -10.1220    4.6540    1.6330 hc        1 MOL      0.014734
    175 H84        -9.9680    4.7570    4.0310 hc        1 MOL      0.069415
    176 H85       -11.6210    4.0080    4.1630 hc        1 MOL      0.069415
    177 N15        -7.8770    2.3720    1.7140 n         1 MOL     -0.446974
    178 C54        -7.7010    3.1520    0.4690 c3        1 MOL     -0.004016
    179 H86        -6.6670    3.0700    0.1320 h1        1 MOL      0.047142
    180 H87        -8.3660    2.7620   -0.3020 h1        1 MOL      0.047142
    181 H88        -7.9390    4.1990    0.6590 h1        1 MOL      0.047142
    182 H89        -6.9430    2.1080    2.0310 hn        1 MOL      0.309561
    183 Ca1         2.8460   -1.4860    2.5560 Ca        1 MOL      1.749081
    184 O25         2.7650   -0.7200    5.0720 oh        1 MOL     -0.814905
    185 H90         3.2480   -0.0300    5.5320 ho        1 MOL      0.406686
    186 H91         2.5680   -1.3650    5.7580 ho        1 MOL      0.406686
    187 O26         5.2890   -0.7050    3.8580 oh        1 MOL     -0.814905
    188 H92         5.9110   -0.0210    3.6120 ho        1 MOL      0.406686
    189 H93         4.9570   -0.4270    4.7170 ho        1 MOL      0.406686
    190 O27         1.0050   -2.7980    3.8330 oh        1 MOL     -0.814905
    191 H94         1.3270   -2.8500    4.7380 ho        1 MOL      0.406686
    192 H95         0.7370   -3.6950    3.6240 ho        1 MOL      0.406686
    193 O28         0.4310   -0.2320    2.3570 oh        1 MOL     -0.814905
    194 H96        -0.4130    0.0660    2.6940 ho        1 MOL      0.406686
    195 H97         0.3670   -0.0870    1.4050 ho        1 MOL      0.406686
@<TRIPOS>BOND
     1    1    2 1   
     2    1    4 1   
     3    1    5 1   
     4    1    6 1   
     5    2    3 2   
     6    2    7 1   
     7    7    8 1   
     8    7   15 1   
     9    8    9 1   
    10    8   11 1   
    11    8   16 1   
    12    9   10 2   
    13    9   19 1   
    14   11   12 1   
    15   11   17 1   
    16   11   18 1   
    17   12   13 1   
    18   12   14 1   
    19   19   20 1   
    20   19   28 1   
    21   20   21 1   
    22   20   23 1   
    23   20   29 1   
    24   21   22 2   
    25   21   41 1   
    26   23   24 1   
    27   23   30 1   
    28   23   31 1   
    29   24   25 1   
    30   24   32 1   
    31   24   33 1   
    32   25   26 1   
    33   25   34 1   
    34   25   35 1   
    35   26   27 1   
    36   26   36 1   
    37   26   37 1   
    38   27   38 1   
    39   27   39 1   
    40   27   40 1   
    41   41   42 1   
    42   41   49 1   
    43   42   43 1   
    44   42   45 1   
    45   42   50 1   
    46   43   44 2   
    47   43   53 1   
    48   45   46 1   
    49   45   51 1   
    50   45   52 1   
    51   46   47 1   
    52   46   48 1   
    53   53   54 1   
    54   53   57 1   
    55   54   55 1   
    56   54   58 1   
    57   54   59 1   
    58   55   56 2   
    59   55   60 1   
    60   60   61 1   
    61   60   68 1   
    62   61   62 1   
    63   61   64 1   
    64   61   69 1   
    65   62   63 2   
    66   62   72 1   
    67   64   65 1   
    68   64   70 1   
    69   64   71 1   
    70   65   66 1   
    71   65   67 1   
    72   72   73 1   
    73   72   76 1   
    74   73   74 1   
    75   73   77 1   
    76   73   78 1   
    77   74   75 2   
    78   74   79 1   
    79   79   80 1   
    80   79   86 1   
    81   80   81 1   
    82   80   83 1   
    83   80   87 1   
    84   81   82 2   
    85   81   93 1   
    86   83   84 1   
    87   83   85 1   
    88   83   88 1   
    89   84   90 1   
    90   84   91 1   
    91   84   92 1   
    92   85   89 1   
    93   93   94 1   
    94   93  101 1   
    95   94   95 1   
    96   94   97 1   
    97   94  102 1   
    98   95   96 2   
    99   95  112 1   
   100   97   98 1   
   101   97   99 1   
   102   97  103 1   
   103   98  100 1   
   104   98  104 1   
   105   98  105 1   
   106   99  106 1   
   107   99  107 1   
   108   99  108 1   
   109  100  109 1   
   110  100  110 1   
   111  100  111 1   
   112  112  113 1   
   113  112  119 1   
   114  113  114 1   
   115  113  116 1   
   116  113  120 1   
   117  114  115 2   
   118  114  126 1   
   119  116  117 1   
   120  116  118 1   
   121  116  121 1   
   122  117  123 1   
   123  117  124 1   
   124  117  125 1   
   125  118  122 1   
   126  126  127 1   
   127  126  133 1   
   128  127  128 1   
   129  127  130 1   
   130  127  134 1   
   131  128  129 2   
   132  128  140 1   
   133  130  131 1   
   134  130  132 1   
   135  130  135 1   
   136  131  137 1   
   137  131  138 1   
   138  131  139 1   
   139  132  136 1   
   140  140  141 1   
   141  140  149 1   
   142  141  142 1   
   143  141  144 1   
   144  141  150 1   
   145  142  143 2   
   146  142  162 1   
   147  144  145 1   
   148  144  151 1   
   149  144  152 1   
   150  145  146 1   
   151  145  153 1   
   152  145  154 1   
   153  146  147 1   
   154  146  155 1   
   155  146  156 1   
   156  147  148 1   
   157  147  157 1   
   158  147  158 1   
   159  148  159 1   
   160  148  160 1   
   161  148  161 1   
   162  162  163 1   
   163  162  171 1   
   164  163  164 1   
   165  163  166 1   
   166  163  172 1   
   167  164  165 2   
   168  164  177 1   
   169  166  167 1   
   170  166  173 1   
   171  166  174 1   
   172  167  168 1   
   173  167  175 1   
   174  167  176 1   
   175  168  169 1   
   176  168  170 1   
   177  177  178 1   
   178  177  182 1   
   179  178  179 1   
   180  178  180 1   
   181  178  181 1   
   182  184  185 1   
   183  184  186 1   
   184  187  188 1   
   185  187  189 1   
   186  190  191 1   
   187  190  192 1   
   188  193  194 1   
   189  193  195 1   
@<TRIPOS>SUBSTRUCTURE
     1 MOL         1 TEMP              0 ****  ****    0 ROOT
