@<TRIPOS>MOLECULE
MOL
  195   189     1     0     0
SMALL
resp


@<TRIPOS>ATOM
      1 C1          1.5170    3.9690    3.3210 c3        1 MOL     -0.576290
      2 C2          0.4430    3.9120    2.1970 c         1 MOL      0.619371
      3 O1         -0.4660    3.0480    2.1370 o         1 MOL     -0.487640
      4 H1          1.0430    3.7880    4.2850 hc        1 MOL      0.146312
      5 H2          2.2740    3.2050    3.1400 hc        1 MOL      0.146312
      6 H3          1.9870    4.9520    3.3260 hc        1 MOL      0.146312
      7 N1          0.4390    4.9540    1.3330 n         1 MOL     -0.387518
      8 C3         -0.2970    5.0630    0.0750 c3        1 MOL      0.054907
      9 C4         -1.8700    4.9020    0.1560 c         1 MOL      0.655515
     10 O2         -2.3770    4.3130   -0.7650 o         1 MOL     -0.472640
     11 C5          0.5290    4.3970   -1.0910 c3        1 MOL     -0.445867
     12 C6          2.0000    4.7210   -1.1630 c         1 MOL      0.922347
     13 O3          2.3370    5.8900   -1.2760 o         1 MOL     -0.752007
     14 O4          2.8420    3.8520   -1.2970 o         1 MOL     -0.752007
     15 H4          1.2660    5.5290    1.4540 hn        1 MOL      0.188337
     16 H5         -0.1050    6.1030   -0.2070 h1        1 MOL      0.040033
     17 H6          0.0810    4.6760   -2.0420 hc        1 MOL      0.132278
     18 H7          0.4090    3.3280   -0.8790 hc        1 MOL      0.132278
     19 N2         -2.5240    5.2710    1.3220 n         1 MOL     -0.595465
     20 C7         -3.9240    5.1270    1.4900 c3        1 MOL      0.012015
     21 C8         -4.6900    5.9060    0.3670 c         1 MOL      0.313377
     22 O5         -4.2130    6.8600   -0.2350 o         1 MOL     -0.519020
     23 C9         -4.2920    5.5790    2.9340 c3        1 MOL      0.207042
     24 C10        -4.2900    7.1420    3.0700 c3        1 MOL      0.017336
     25 C11        -3.4400    4.8660    3.9580 c3        1 MOL     -0.360121
     26 C12        -4.5430    7.7470    4.4920 c3        1 MOL     -0.254926
     27 H8         -1.9220    5.6290    2.0420 hn        1 MOL      0.282178
     28 H9         -4.1430    4.0740    1.3280 h1        1 MOL      0.117083
     29 H10        -5.3430    5.2780    3.0080 hc        1 MOL      0.012405
     30 H11        -4.9700    7.6060    2.3600 hc        1 MOL      0.028095
     31 H12        -3.2880    7.3590    2.6910 hc        1 MOL      0.028095
     32 H13        -3.8710    4.9520    4.9520 hc        1 MOL      0.093156
     33 H14        -3.5290    3.7950    3.7420 hc        1 MOL      0.093156
     34 H15        -2.4220    5.2330    3.9890 hc        1 MOL      0.093156
     35 H16        -3.8500    7.3760    5.2370 hc        1 MOL      0.053957
     36 H17        -4.4570    8.8240    4.5380 hc        1 MOL      0.053957
     37 H18        -5.5740    7.5070    4.7460 hc        1 MOL      0.053957
     38 N3         -5.9080    5.5300   -0.0630 n         1 MOL     -0.351859
     39 C13        -6.7460    4.3580    0.3230 c3        1 MOL      0.130901
     40 C14        -6.2600    3.0220   -0.3110 c         1 MOL      0.644576
     41 O6         -6.7430    1.9160   -0.0890 o         1 MOL     -0.585784
     42 C15        -8.2980    4.6590    0.1100 c3        1 MOL     -0.198028
     43 C16        -8.7210    4.9830   -1.3220 c         1 MOL      0.716823
     44 O7         -9.8350    4.6450   -1.8050 o         1 MOL     -0.694577
     45 O8         -7.8980    5.5090   -2.0520 o         1 MOL     -0.694577
     46 H19        -6.2570    5.9960   -0.8940 hn        1 MOL      0.262259
     47 H20        -6.5210    4.1440    1.3670 h1        1 MOL     -0.046657
     48 H21        -8.5770    5.4890    0.7510 hc        1 MOL      0.023493
     49 H22        -8.9180    3.8280    0.4360 hc        1 MOL      0.023493
     50 N4         -5.1910    3.2190   -1.1410 n         1 MOL     -0.484746
     51 C17        -4.5770    2.1140   -1.8520 c3        1 MOL     -0.121253
     52 C18        -5.5480    1.1550   -2.5490 c         1 MOL      0.589163
     53 O9         -6.5140    1.5810   -3.1580 o         1 MOL     -0.499989
     54 H23        -4.8370    4.1390   -1.3620 hn        1 MOL      0.363981
     55 H24        -3.8890    1.6550   -1.1450 h1        1 MOL      0.086903
     56 H25        -3.9230    2.4700   -2.6390 h1        1 MOL      0.086903
     57 N5         -5.2290   -0.1820   -2.5050 n         1 MOL     -0.649605
     58 C19        -5.9570   -1.3100   -3.1440 c3        1 MOL      0.323708
     59 C20        -6.7510   -2.0710   -2.0210 c         1 MOL      0.290084
     60 O10        -7.4840   -2.9760   -2.3800 o         1 MOL     -0.539173
     61 C21        -4.9120   -2.2170   -3.8060 c3        1 MOL     -0.158991
     62 C22        -3.6550   -2.5180   -3.0470 c         1 MOL      0.627159
     63 O11        -2.5570   -1.9870   -3.3710 o         1 MOL     -0.655798
     64 O12        -3.7170   -2.8800   -1.8630 o         1 MOL     -0.655798
     65 H26        -4.3890   -0.3900   -1.9800 hn        1 MOL      0.369935
     66 H27        -6.6700   -0.9370   -3.8760 h1        1 MOL      0.050215
     67 H28        -4.7100   -1.7580   -4.7800 hc        1 MOL     -0.003645
     68 H29        -5.4850   -3.1010   -4.0770 hc        1 MOL     -0.003645
     69 N6         -6.6110   -1.6990   -0.7450 n         1 MOL     -0.033350
     70 C23        -7.0960   -2.4070    0.3740 c3        1 MOL     -0.448440
     71 C24        -6.4420   -3.7750    0.6730 c         1 MOL      0.675029
     72 O13        -6.9660   -4.4940    1.5510 o         1 MOL     -0.673427
     73 H30        -5.9770   -0.9420   -0.5480 hn        1 MOL      0.213790
     74 H31        -8.1540   -2.5590    0.1580 h1        1 MOL      0.158877
     75 H32        -7.0190   -1.8560    1.3100 h1        1 MOL      0.158877
     76 N7         -5.3890   -4.1600    0.0100 n         1 MOL     -0.113134
     77 C25        -4.7780   -5.5210    0.0520 c3        1 MOL      0.243462
     78 C26        -4.1430   -5.9080    1.4360 c         1 MOL      0.337781
     79 O14        -3.6760   -7.0140    1.7050 o         1 MOL     -0.514629
     80 C27        -5.7230   -6.5830   -0.5800 c3        1 MOL     -0.218282
     81 C28        -6.1190   -6.0870   -1.9580 c3        1 MOL     -0.020997
     82 C29        -6.4900   -7.2890   -2.8620 c         1 MOL      0.647227
     83 N8         -6.8800   -7.0250   -4.0430 n         1 MOL     -0.766817
     84 O15        -6.3980   -8.4640   -2.5920 o         1 MOL     -0.580842
     85 H33        -5.0090   -3.6040   -0.7420 hn        1 MOL      0.005691
     86 H34        -3.8800   -5.4650   -0.5580 h1        1 MOL      0.065450
     87 H35        -6.6550   -6.6530   -0.0220 hc        1 MOL      0.051529
     88 H36        -5.1580   -7.5000   -0.7080 hc        1 MOL      0.051529
     89 H37        -5.3060   -5.5940   -2.4870 hc        1 MOL      0.041681
     90 H38        -7.0110   -5.4670   -1.8530 hc        1 MOL      0.041681
     91 H39        -7.3450   -6.1330   -4.1400 hn        1 MOL      0.333485
     92 H40        -7.1080   -7.7750   -4.6840 hn        1 MOL      0.333485
     93 N9         -3.8040   -4.9090    2.2530 n         1 MOL     -0.250148
     94 C30        -3.1060   -5.0400    3.5780 c3        1 MOL      0.011152
     95 C31        -1.6160   -4.4940    3.6120 c         1 MOL      0.592437
     96 O16        -0.8440   -4.9550    4.4600 o         1 MOL     -0.574857
     97 C32        -3.8550   -4.4140    4.7370 c3        1 MOL      0.348640
     98 C33        -4.2540   -2.9460    4.4750 c3        1 MOL     -0.363182
     99 C34        -5.1260   -5.2070    5.0920 c3        1 MOL     -0.363182
    100 H41        -4.0090   -3.9790    1.9130 hn        1 MOL      0.164957
    101 H42        -3.0730   -6.1050    3.7980 h1        1 MOL      0.063425
    102 H43        -3.1410   -4.4740    5.5550 hc        1 MOL     -0.058264
    103 H44        -4.8200   -2.8540    3.5550 hc        1 MOL      0.080476
    104 H45        -4.7700   -2.5560    5.3540 hc        1 MOL      0.080476
    105 H46        -3.3510   -2.3740    4.2970 hc        1 MOL      0.080476
    106 H47        -4.8940   -6.2630    5.2590 hc        1 MOL      0.080476
    107 H48        -5.6210   -4.8490    5.9860 hc        1 MOL      0.080476
    108 H49        -5.7710   -5.3010    4.2160 hc        1 MOL      0.080476
    109 N10        -1.1310   -3.6210    2.6710 n         1 MOL     -0.693114
    110 C35         0.2010   -3.1010    2.6490 c3        1 MOL      0.493265
    111 C36         0.9110   -3.0980    1.2270 c         1 MOL      0.507581
    112 O17         0.2430   -3.3740    0.2240 o         1 MOL     -0.472643
    113 C37         0.2350   -1.7450    3.4350 c3        1 MOL     -0.182671
    114 C38        -0.3500   -0.5530    2.6300 c         1 MOL      0.538864
    115 N11         0.4480    0.3980    2.2150 n         1 MOL     -0.737578
    116 O18        -1.5420   -0.5520    2.3160 o         1 MOL     -0.492794
    117 H50        -1.7510   -3.3870    1.9040 hn        1 MOL      0.307366
    118 H51         0.8670   -3.6900    3.2680 h1        1 MOL     -0.024923
    119 H52         1.2700   -1.5400    3.6940 hc        1 MOL      0.023800
    120 H53        -0.3180   -1.7570    4.3740 hc        1 MOL      0.023800
    121 H54         1.4090    0.4210    2.5380 hn        1 MOL      0.357938
    122 H55         0.0860    1.1070    1.5970 hn        1 MOL      0.357938
    123 N12         2.2300   -2.7320    1.2170 n         1 MOL     -0.643389
    124 C39         3.1440   -2.9030    0.0400 c3        1 MOL      0.067676
    125 C40         4.6010   -2.7840    0.4890 c         1 MOL      0.857784
    126 O19         4.9430   -1.9710    1.3540 o         1 MOL     -0.695115
    127 C41         2.9220   -1.7920   -1.0190 c3        1 MOL     -0.272405
    128 C42         3.4290   -2.2290   -2.4100 ca        1 MOL      0.046747
    129 C43         4.6750   -1.7190   -2.8750 ca        1 MOL     -0.166798
    130 C44         2.8140   -3.3390   -3.0350 ca        1 MOL     -0.166798
    131 C45         5.2390   -2.3130   -3.9840 ca        1 MOL     -0.293145
    132 C46         3.3440   -3.8560   -4.2000 ca        1 MOL     -0.293145
    133 C47         4.6010   -3.4010   -4.6100 ca        1 MOL      0.433881
    134 O20         5.1690   -3.8980   -5.7030 oh        1 MOL     -0.562091
    135 H56         2.5790   -2.4300    2.1090 hn        1 MOL      0.304441
    136 H57         2.9600   -3.9030   -0.3550 h1        1 MOL      0.097342
    137 H58         3.3830   -0.8340   -0.7650 hc        1 MOL      0.124232
    138 H59         1.8530   -1.6110   -1.1200 hc        1 MOL      0.124232
    139 H60         5.1080   -0.9600   -2.2360 ha        1 MOL      0.179133
    140 H61         1.9040   -3.8100   -2.6920 ha        1 MOL      0.179133
    141 H62         6.2460   -2.0590   -4.2900 ha        1 MOL      0.153365
    142 H63         2.8020   -4.6250   -4.7290 ha        1 MOL      0.153365
    143 H64         5.8490   -3.3850   -6.1470 ho        1 MOL      0.387010
    144 N13         5.4610   -3.5370   -0.0800 n         1 MOL     -0.820631
    145 C48         6.9090   -3.4580    0.2120 c3        1 MOL      0.330998
    146 C49         7.5160   -2.6640   -0.9340 c         1 MOL      0.581656
    147 O21         7.7550   -3.1490   -2.0470 o         1 MOL     -0.573559
    148 C50         7.5510   -4.8150    0.3210 c3        1 MOL      0.022498
    149 C51         9.0300   -4.7040    0.7890 c3        1 MOL     -0.358184
    150 C52         9.4660   -6.1020    1.2990 c         1 MOL      0.729842
    151 O22         9.3620   -6.3780    2.5210 o         1 MOL     -0.743690
    152 O23         9.9860   -6.8910    0.4300 o         1 MOL     -0.743690
    153 H65         5.2150   -4.1030   -0.8820 hn        1 MOL      0.362874
    154 H66         7.0830   -2.9010    1.1370 h1        1 MOL      0.033782
    155 H67         7.4810   -5.4260   -0.5790 hc        1 MOL      0.019872
    156 H68         7.0450   -5.4300    1.0620 hc        1 MOL      0.019872
    157 H69         9.0840   -4.0300    1.6330 hc        1 MOL      0.081677
    158 H70         9.6130   -4.3390   -0.0600 hc        1 MOL      0.081677
    159 N14         7.8230   -1.4070   -0.7270 n         1 MOL     -0.650709
    160 C53         7.4430   -0.4670    0.4000 c3        1 MOL      0.057025
    161 C54         8.2030   -0.4610    1.7290 c         1 MOL      0.436523
    162 O24         9.3800   -0.8570    1.7600 o         1 MOL     -0.516052
    163 C55         7.5230    0.9880   -0.1570 c3        1 MOL      0.244829
    164 C56         6.7090    1.3310   -1.4080 c3        1 MOL     -0.135517
    165 C57         6.5440    2.9140   -1.6020 c         1 MOL      0.644882
    166 O25         5.7330    3.3000   -2.4330 o         1 MOL     -0.685706
    167 O26         7.0550    3.7180   -0.8010 o         1 MOL     -0.685706
    168 H71         8.3380   -0.9090   -1.4390 hn        1 MOL      0.362531
    169 H72         6.3730   -0.5540    0.5910 h1        1 MOL      0.076737
    170 H73         8.5400    1.3350   -0.3320 hc        1 MOL     -0.092488
    171 H74         7.1450    1.6150    0.6520 hc        1 MOL     -0.092488
    172 H75         5.7060    0.8920   -1.3610 hc        1 MOL      0.004280
    173 H76         7.1900    0.8250   -2.2500 hc        1 MOL      0.004280
    174 N15         7.4970    0.0300    2.7470 n         1 MOL     -0.226634
    175 C58         7.9480    0.2570    4.1440 c3        1 MOL     -0.422421
    176 H77         7.0830    0.2660    4.8070 h1        1 MOL      0.158174
    177 H78         8.6260   -0.5420    4.4430 h1        1 MOL      0.158174
    178 H79         8.4640    1.2150    4.2080 h1        1 MOL      0.158174
    179 H80         6.5210    0.1220    2.4810 hn        1 MOL      0.250471
    180 Ca1         4.9840    5.5520   -0.9840 Ca        1 MOL      1.742755
    181 O27         4.2730    8.2560   -1.8340 oh        1 MOL     -0.850759
    182 H81         3.5310    8.1510   -2.4240 ho        1 MOL      0.408697
    183 H82         4.9860    8.5510   -2.3960 ho        1 MOL      0.408697
    184 O28         7.1270    6.6790   -1.9960 oh        1 MOL     -0.850759
    185 H83         7.7190    7.1720   -1.4150 ho        1 MOL      0.408697
    186 H84         6.9720    7.2660   -2.7310 ho        1 MOL      0.408697
    187 O29         4.5060    4.0870    1.1130 oh        1 MOL     -0.850759
    188 H85         4.6070    4.2600    2.0490 ho        1 MOL      0.408697
    189 H86         4.5400    3.1280    1.0430 ho        1 MOL      0.408697
    190 O30         6.7310    6.2240    0.9360 oh        1 MOL     -0.850759
    191 H87         7.5730    5.8740    0.6650 ho        1 MOL      0.408697
    192 H88         6.8320    6.3970    1.8710 ho        1 MOL      0.408697
    193 O31         4.4990    5.8290   -3.5720 oh        1 MOL     -0.850759
    194 H89         3.7680    5.2830   -3.8470 ho        1 MOL      0.408697
    195 H90         4.9400    6.0740   -4.3920 ho        1 MOL      0.408697
@<TRIPOS>BOND
     1    1    2 1   
     2    1    4 1   
     3    1    5 1   
     4    1    6 1   
     5    2    3 2   
     6    2    7 1   
     7    7    8 1   
     8    7   15 1   
     9    8    9 1   
    10    8   11 1   
    11    8   16 1   
    12    9   10 2   
    13    9   19 1   
    14   11   12 1   
    15   11   17 1   
    16   11   18 1   
    17   12   13 1   
    18   12   14 1   
    19   19   20 1   
    20   19   27 1   
    21   20   21 1   
    22   20   23 1   
    23   20   28 1   
    24   21   22 2   
    25   21   38 1   
    26   23   24 1   
    27   23   25 1   
    28   23   29 1   
    29   24   26 1   
    30   24   30 1   
    31   24   31 1   
    32   25   32 1   
    33   25   33 1   
    34   25   34 1   
    35   26   35 1   
    36   26   36 1   
    37   26   37 1   
    38   38   39 1   
    39   38   46 1   
    40   39   40 1   
    41   39   42 1   
    42   39   47 1   
    43   40   41 2   
    44   40   50 1   
    45   42   43 1   
    46   42   48 1   
    47   42   49 1   
    48   43   44 1   
    49   43   45 1   
    50   50   51 1   
    51   50   54 1   
    52   51   52 1   
    53   51   55 1   
    54   51   56 1   
    55   52   53 2   
    56   52   57 1   
    57   57   58 1   
    58   57   65 1   
    59   58   59 1   
    60   58   61 1   
    61   58   66 1   
    62   59   60 2   
    63   59   69 1   
    64   61   62 1   
    65   61   67 1   
    66   61   68 1   
    67   62   63 1   
    68   62   64 1   
    69   69   70 1   
    70   69   73 1   
    71   70   71 1   
    72   70   74 1   
    73   70   75 1   
    74   71   72 2   
    75   71   76 1   
    76   76   77 1   
    77   76   85 1   
    78   77   78 1   
    79   77   80 1   
    80   77   86 1   
    81   78   79 2   
    82   78   93 1   
    83   80   81 1   
    84   80   87 1   
    85   80   88 1   
    86   81   82 1   
    87   81   89 1   
    88   81   90 1   
    89   82   83 1   
    90   82   84 2   
    91   83   91 1   
    92   83   92 1   
    93   93   94 1   
    94   93  100 1   
    95   94   95 1   
    96   94   97 1   
    97   94  101 1   
    98   95   96 2   
    99   95  109 1   
   100   97   98 1   
   101   97   99 1   
   102   97  102 1   
   103   98  103 1   
   104   98  104 1   
   105   98  105 1   
   106   99  106 1   
   107   99  107 1   
   108   99  108 1   
   109  109  110 1   
   110  109  117 1   
   111  110  111 1   
   112  110  113 1   
   113  110  118 1   
   114  111  112 2   
   115  111  123 1   
   116  113  114 1   
   117  113  119 1   
   118  113  120 1   
   119  114  115 1   
   120  114  116 2   
   121  115  121 1   
   122  115  122 1   
   123  123  124 1   
   124  123  135 1   
   125  124  125 1   
   126  124  127 1   
   127  124  136 1   
   128  125  126 2   
   129  125  144 1   
   130  127  128 1   
   131  127  137 1   
   132  127  138 1   
   133  128  129 ar  
   134  128  130 ar  
   135  129  131 ar  
   136  129  139 1   
   137  130  132 ar  
   138  130  140 1   
   139  131  133 ar  
   140  131  141 1   
   141  132  133 ar  
   142  132  142 1   
   143  133  134 1   
   144  134  143 1   
   145  144  145 1   
   146  144  153 1   
   147  145  146 1   
   148  145  148 1   
   149  145  154 1   
   150  146  147 2   
   151  146  159 1   
   152  148  149 1   
   153  148  155 1   
   154  148  156 1   
   155  149  150 1   
   156  149  157 1   
   157  149  158 1   
   158  150  151 1   
   159  150  152 1   
   160  159  160 1   
   161  159  168 1   
   162  160  161 1   
   163  160  163 1   
   164  160  169 1   
   165  161  162 2   
   166  161  174 1   
   167  163  164 1   
   168  163  170 1   
   169  163  171 1   
   170  164  165 1   
   171  164  172 1   
   172  164  173 1   
   173  165  166 1   
   174  165  167 1   
   175  174  175 1   
   176  174  179 1   
   177  175  176 1   
   178  175  177 1   
   179  175  178 1   
   180  181  182 1   
   181  181  183 1   
   182  184  185 1   
   183  184  186 1   
   184  187  188 1   
   185  187  189 1   
   186  190  191 1   
   187  190  192 1   
   188  193  194 1   
   189  193  195 1   
@<TRIPOS>SUBSTRUCTURE
     1 MOL         1 TEMP              0 ****  ****    0 ROOT
