@<TRIPOS>MOLECULE
MOL
  201   193     1     0     0
SMALL
resp


@<TRIPOS>ATOM
      1 C1         -3.8480   -4.2660    2.1180 c3        1 MOL     -0.282633
      2 C2         -2.8320   -3.9190    1.0100 c         1 MOL      0.704149
      3 O1         -2.3590   -2.7920    0.9930 o         1 MOL     -0.534545
      4 H1         -4.3000   -3.3500    2.4960 hc        1 MOL      0.032078
      5 H2         -4.6260   -4.9110    1.7090 hc        1 MOL      0.032078
      6 H3         -3.3370   -4.7820    2.9310 hc        1 MOL      0.032078
      7 N1         -2.4820   -4.8770    0.1640 n         1 MOL     -0.351502
      8 C3         -1.4780   -4.7200   -0.8750 c3        1 MOL     -0.041478
      9 C4         -0.0290   -4.5380   -0.3950 c         1 MOL      0.719914
     10 O2          0.7770   -3.8360   -1.0550 o         1 MOL     -0.598357
     11 C5         -1.8260   -3.6920   -1.9510 c3        1 MOL     -0.438377
     12 C6         -3.2730   -3.8270   -2.4520 c         1 MOL      0.712324
     13 O3         -3.6890   -4.9330   -2.8720 o         1 MOL     -0.642083
     14 O4         -4.0600   -2.8670   -2.2940 o         1 MOL     -0.642083
     15 H4         -2.9060   -5.7880    0.2080 hn        1 MOL      0.270294
     16 H5         -1.3830   -5.6610   -1.4230 h1        1 MOL      0.079747
     17 H6         -1.1310   -3.7710   -2.7840 hc        1 MOL      0.147754
     18 H7         -1.7230   -2.6450   -1.6540 hc        1 MOL      0.147754
     19 N2          0.2550   -4.9820    0.8470 n         1 MOL     -0.611419
     20 C7          1.5840   -4.8360    1.4660 c3        1 MOL      0.199250
     21 C8          2.6400   -5.8820    0.8480 c         1 MOL      0.305190
     22 O5          2.1960   -6.9730    0.4100 o         1 MOL     -0.542569
     23 C9          1.5550   -5.0620    3.0020 c3        1 MOL      0.322578
     24 C10         0.9290   -6.3000    3.7460 c3        1 MOL      0.052812
     25 C11         0.9810   -3.7860    3.6830 c3        1 MOL     -0.162580
     26 C12         1.7380   -7.5190    3.3650 c3        1 MOL     -0.322672
     27 H8         -0.5420   -5.3660    1.3290 hn        1 MOL      0.225338
     28 H9          1.8940   -3.8030    1.3120 h1        1 MOL      0.029919
     29 H10         2.5990   -5.0440    3.3320 hc        1 MOL     -0.033090
     30 H11        -0.1350   -6.3800    3.5450 hc        1 MOL     -0.016288
     31 H12         1.0290   -6.0550    4.8120 hc        1 MOL     -0.016288
     32 H13         1.1410   -3.7920    4.7650 hc        1 MOL      0.022114
     33 H14         1.5310   -2.9060    3.3550 hc        1 MOL      0.022114
     34 H15        -0.0870   -3.6550    3.5510 hc        1 MOL      0.022114
     35 H16         2.7980   -7.3170    3.2600 hc        1 MOL      0.075580
     36 H17         1.6350   -8.3000    4.1220 hc        1 MOL      0.075580
     37 H18         1.5400   -8.0030    2.4000 hc        1 MOL      0.075580
     38 N3          3.9390   -5.6480    0.8190 n         1 MOL     -0.297074
     39 C13         4.5300   -4.3080    1.1000 c3        1 MOL      0.006642
     40 C14         4.4310   -3.2920   -0.0820 c         1 MOL      0.375538
     41 O6          4.8040   -2.1120    0.1020 o         1 MOL     -0.495044
     42 C15         6.0040   -4.4450    1.5330 c3        1 MOL     -0.135738
     43 C16         6.3690   -5.5310    2.5730 c         1 MOL      0.652954
     44 O7          7.2470   -6.4220    2.3000 o         1 MOL     -0.692618
     45 O8          5.7090   -5.5280    3.6380 o         1 MOL     -0.692618
     46 H19         4.4710   -6.3530    0.3310 hn        1 MOL      0.293101
     47 H20         4.0840   -3.8330    1.9730 h1        1 MOL      0.080391
     48 H21         6.2000   -3.4910    2.0170 hc        1 MOL      0.030048
     49 H22         6.6420   -4.6280    0.6680 hc        1 MOL      0.030048
     50 N4          3.9770   -3.7420   -1.2740 n         1 MOL     -0.107298
     51 C17         3.6900   -2.8230   -2.3860 c3        1 MOL     -0.393598
     52 C18         4.8980   -2.3520   -3.2430 c         1 MOL      0.592973
     53 O9          5.6090   -3.1990   -3.7200 o         1 MOL     -0.589163
     54 H23         4.0360   -4.7320   -1.4610 hn        1 MOL      0.233491
     55 H24         3.1140   -1.9610   -2.0480 h1        1 MOL      0.154216
     56 H25         3.0620   -3.4310   -3.0380 h1        1 MOL      0.154216
     57 N5          5.1600   -1.0810   -3.2080 n         1 MOL     -0.445598
     58 C19         6.4580   -0.6050   -3.7270 c3        1 MOL      0.146711
     59 C20         7.6020   -0.5180   -2.6290 c         1 MOL      0.357039
     60 O10         8.6720    0.0310   -2.8360 o         1 MOL     -0.545317
     61 C21         6.2590    0.7010   -4.4570 c3        1 MOL     -0.072785
     62 C22         5.3670    1.6790   -3.7360 c         1 MOL      0.711037
     63 O11         4.8140    2.5580   -4.4400 o         1 MOL     -0.692893
     64 O12         5.3090    1.6840   -2.4730 o         1 MOL     -0.692893
     65 H26         4.4450   -0.4300   -2.9000 hn        1 MOL      0.286671
     66 H27         6.8100   -1.3290   -4.4590 h1        1 MOL      0.060132
     67 H28         5.7850    0.4140   -5.3940 hc        1 MOL     -0.013356
     68 H29         7.2400    1.1110   -4.7060 hc        1 MOL     -0.013356
     69 N6          7.2100   -0.9730   -1.4380 n         1 MOL     -0.173842
     70 C23         8.0170   -0.7460   -0.1930 c3        1 MOL     -0.193929
     71 C24         7.9700    0.7110    0.3880 c         1 MOL      0.564590
     72 O13         8.4710    0.8430    1.4870 o         1 MOL     -0.580308
     73 H30         6.3000   -1.4160   -1.3860 hn        1 MOL      0.180563
     74 H31         9.0360   -1.0180   -0.4980 h1        1 MOL      0.101157
     75 H32         7.7150   -1.4400    0.5880 h1        1 MOL      0.101157
     76 N7          7.3290    1.6450   -0.3650 n         1 MOL     -0.242863
     77 C25         7.0940    3.0690   -0.0060 c3        1 MOL      0.292941
     78 C26         6.4610    3.3090    1.3470 c         1 MOL      0.194843
     79 O14         6.5920    4.4440    1.8720 o         1 MOL     -0.503465
     80 C27         8.4470    3.7770   -0.2210 c3        1 MOL     -0.043838
     81 C28         9.0320    3.5300   -1.6330 c3        1 MOL     -0.122032
     82 C29         9.9320    4.6460   -2.1790 c         1 MOL      0.628257
     83 N8         10.7330    4.4060   -3.2330 n         1 MOL     -0.818896
     84 O15        10.0500    5.7760   -1.6720 o         1 MOL     -0.553181
     85 H33         6.8700    1.3780   -1.2270 hn        1 MOL      0.078045
     86 H34         6.3760    3.5030   -0.7180 h1        1 MOL      0.079801
     87 H35         9.1580    3.3890    0.5120 hc        1 MOL      0.004125
     88 H36         8.2640    4.8490   -0.1760 hc        1 MOL      0.004125
     89 H37         8.2480    3.2880   -2.3540 hc        1 MOL      0.067688
     90 H38         9.7070    2.6740   -1.6300 hc        1 MOL      0.067688
     91 H39        10.6520    3.5430   -3.7540 hn        1 MOL      0.351422
     92 H40        11.4810    5.0350   -3.4590 hn        1 MOL      0.351422
     93 N9          5.7670    2.3950    1.9970 n         1 MOL     -0.116355
     94 C30         4.9950    2.4890    3.2480 c3        1 MOL      0.015052
     95 C31         3.5190    2.7190    2.9440 c         1 MOL      0.460935
     96 O16         2.8730    3.3940    3.7590 o         1 MOL     -0.567292
     97 C32         5.1530    1.3010    4.2200 c3        1 MOL      0.220813
     98 C33         5.1430   -0.0140    3.4740 c3        1 MOL     -0.380269
     99 C34         6.5140    1.3320    4.9510 c3        1 MOL     -0.380269
    100 H41         5.6600    1.5180    1.5110 hn        1 MOL      0.186197
    101 H42         5.3780    3.3140    3.8360 h1        1 MOL      0.072055
    102 H43         4.3380    1.3940    4.9270 hc        1 MOL     -0.013611
    103 H44         5.2000   -0.8500    4.1790 hc        1 MOL      0.097924
    104 H45         4.1930   -0.1460    2.9530 hc        1 MOL      0.097924
    105 H46         5.8760   -0.0740    2.6700 hc        1 MOL      0.097924
    106 H47         7.2670    1.3180    4.1580 hc        1 MOL      0.097924
    107 H48         6.6340    2.1830    5.6230 hc        1 MOL      0.097924
    108 H49         6.6230    0.3610    5.4230 hc        1 MOL      0.097924
    109 N10         2.9800    2.1870    1.8620 n         1 MOL     -0.254760
    110 C35         1.5820    2.0450    1.4470 c3        1 MOL      0.120189
    111 C36         1.0530    3.1540    0.4990 c         1 MOL      0.469201
    112 O17         1.7730    3.8730   -0.1540 o         1 MOL     -0.523330
    113 C37         1.4190    0.6310    0.8830 c3        1 MOL     -0.186472
    114 C38        -0.0350    0.1490    0.9490 c         1 MOL      0.614879
    115 N11        -0.2800   -1.0310    0.4410 n         1 MOL     -0.720092
    116 O18        -0.9130    0.7760    1.4980 o         1 MOL     -0.526631
    117 H50         3.6700    1.8690    1.1920 hn        1 MOL      0.147412
    118 H51         1.0410    2.0790    2.3970 h1        1 MOL      0.038149
    119 H52         2.0180   -0.0270    1.5080 hc        1 MOL      0.070273
    120 H53         1.8730    0.6230   -0.1070 hc        1 MOL      0.070273
    121 H54         0.3410   -1.5610   -0.1520 hn        1 MOL      0.334144
    122 H55        -1.1970   -1.4410    0.5860 hn        1 MOL      0.334144
    123 N12        -0.2890    3.2630    0.4660 n         1 MOL     -0.286839
    124 C39        -1.1020    4.2890   -0.2480 c3        1 MOL      0.015244
    125 C40        -2.5260    4.4690    0.3310 c         1 MOL      0.644226
    126 O19        -2.9020    3.7280    1.2320 o         1 MOL     -0.558726
    127 C41        -1.1770    4.0200   -1.8050 c3        1 MOL     -0.029334
    128 C42        -2.0570    2.8960   -2.3100 ca        1 MOL      0.073022
    129 C43        -1.4810    1.6280   -2.3670 ca        1 MOL     -0.177688
    130 C44        -3.3840    3.1140   -2.7040 ca        1 MOL     -0.177688
    131 C45        -2.3430    0.5350   -2.6260 ca        1 MOL     -0.249259
    132 C46        -4.1820    2.0240   -3.0920 ca        1 MOL     -0.249259
    133 C47        -3.7180    0.7280   -2.9830 ca        1 MOL      0.345364
    134 O20        -4.4750   -0.3370   -3.2370 oh        1 MOL     -0.526197
    135 H56        -0.6980    2.6550    1.1600 hn        1 MOL      0.180253
    136 H57        -0.6430    5.2530   -0.0410 h1        1 MOL      0.063926
    137 H58        -0.1990    4.0040   -2.2780 hc        1 MOL      0.020853
    138 H59        -1.5470    4.9390   -2.2570 hc        1 MOL      0.020853
    139 H60        -0.4430    1.4620   -2.1170 ha        1 MOL      0.136033
    140 H61        -3.7990    4.1080   -2.7110 ha        1 MOL      0.136033
    141 H62        -1.9770   -0.4740   -2.5850 ha        1 MOL      0.120543
    142 H63        -5.2100    2.0960   -3.3970 ha        1 MOL      0.120543
    143 H64        -4.1500   -1.1650   -2.8640 ho        1 MOL      0.387094
    144 N13        -3.2200    5.5560   -0.0780 n         1 MOL     -0.688879
    145 C48        -4.5820    5.7820    0.2940 c3        1 MOL      0.522416
    146 C49        -5.5680    5.3940   -0.8520 c         1 MOL      0.286467
    147 O21        -5.6510    6.1640   -1.7770 o         1 MOL     -0.533351
    148 C50        -4.8100    7.2230    0.7220 c3        1 MOL     -0.015507
    149 C51        -4.0320    7.7920    1.8560 c3        1 MOL     -0.008833
    150 C52        -4.6800    9.0830    2.3200 c         1 MOL      0.664297
    151 O22        -4.2420   10.1970    1.8360 o         1 MOL     -0.659485
    152 O23        -5.4620    9.0240    3.2850 o         1 MOL     -0.659485
    153 H65        -2.8050    6.2050   -0.7300 hn        1 MOL      0.353310
    154 H66        -4.7850    5.1430    1.1510 h1        1 MOL     -0.087836
    155 H67        -5.8700    7.3700    0.9500 hc        1 MOL     -0.022221
    156 H68        -4.5630    7.8690   -0.1130 hc        1 MOL     -0.022221
    157 H69        -3.0060    7.9940    1.5480 hc        1 MOL     -0.028388
    158 H70        -3.9270    7.1170    2.7030 hc        1 MOL     -0.028388
    159 N14        -6.1070    4.1850   -0.9010 n         1 MOL     -0.280582
    160 C53        -6.0150    3.1610    0.1640 c3        1 MOL     -0.077352
    161 C54        -6.5350    3.5180    1.5880 c         1 MOL      0.628397
    162 O24        -7.3730    4.3550    1.8020 o         1 MOL     -0.542106
    163 C55        -6.4480    1.7600   -0.3650 c3        1 MOL     -0.028139
    164 C56        -7.9460    1.6130   -0.6480 c3        1 MOL     -0.399858
    165 C57        -8.2770    0.2450   -1.2320 c         1 MOL      0.684876
    166 O25        -8.4550    0.0700   -2.4600 o         1 MOL     -0.649811
    167 O26        -8.3470   -0.7190   -0.4300 o         1 MOL     -0.649811
    168 H71        -6.7580    4.1130   -1.6770 hn        1 MOL      0.274824
    169 H72        -4.9880    2.8260    0.3160 h1        1 MOL      0.080755
    170 H73        -6.0840    0.9160    0.2300 hc        1 MOL      0.051457
    171 H74        -5.9120    1.6660   -1.3040 hc        1 MOL      0.051457
    172 H75        -8.3080    2.3160   -1.3970 hc        1 MOL      0.093858
    173 H76        -8.5550    1.7520    0.2420 hc        1 MOL      0.093858
    174 N15        -5.9850    2.7150    2.5640 n         1 MOL     -0.283539
    175 C58        -6.4590    2.6830    3.9450 c3        1 MOL     -0.354711
    176 H77        -7.5260    2.8980    3.9680 h1        1 MOL      0.130981
    177 H78        -6.2790    1.6940    4.3680 h1        1 MOL      0.130981
    178 H79        -5.9250    3.4320    4.5300 h1        1 MOL      0.130981
    179 H80        -5.2530    2.0820    2.2840 hn        1 MOL      0.275172
    180 Ca1        -7.9810   -3.3310   -0.2830 Ca        1 MOL      1.730963
    181 O27        -5.5790   -1.9210   -0.4940 oh        1 MOL     -0.803719
    182 H81        -5.4980   -0.9700   -0.5470 ho        1 MOL      0.370615
    183 H82        -5.0450   -2.2490   -1.2110 ho        1 MOL      0.370615
    184 O28       -10.6040   -3.0340   -0.5860 oh        1 MOL     -0.803719
    185 O29        -6.1000   -4.8360   -1.2940 oh        1 MOL     -0.803719
    186 H83       -11.2570   -3.7230   -0.5050 ho        1 MOL      0.370615
    187 H84        -5.2330   -4.8010   -1.7000 ho        1 MOL      0.370615
    188 H85       -11.0640   -2.2290   -0.3450 ho        1 MOL      0.370615
    189 H86        -6.3790   -5.7450   -1.4040 ho        1 MOL      0.370615
    190 O30        -9.3930   -4.9620    1.1940 oh        1 MOL     -0.803719
    191 H87        -8.9820   -5.4220    1.9180 ho        1 MOL      0.370615
    192 H88       -10.3250   -4.9280    1.4340 ho        1 MOL      0.370615
    193 O31        -9.1400   -5.2370   -2.1620 oh        1 MOL     -0.803719
    194 H89        -9.5300   -6.1080   -2.1310 ho        1 MOL      0.370615
    195 H90        -9.1860   -4.9900   -3.0830 ho        1 MOL      0.370615
    196 O32        -7.8830   -2.4890   -2.6970 oh        1 MOL     -0.803719
    197 H91        -8.0480   -2.7130   -3.6180 ho        1 MOL      0.370615
    198 H92        -8.0800   -1.5600   -2.6410 ho        1 MOL      0.370615
    199 O33        -8.7870   -2.2180    2.1570 oh        1 MOL     -0.803719
    200 H93        -8.7260   -1.2900    2.4000 ho        1 MOL      0.370615
    201 H94        -9.5560   -2.5410    2.6300 ho        1 MOL      0.370615
@<TRIPOS>BOND
     1    1    2 1   
     2    1    4 1   
     3    1    5 1   
     4    1    6 1   
     5    2    3 2   
     6    2    7 1   
     7    7    8 1   
     8    7   15 1   
     9    8    9 1   
    10    8   11 1   
    11    8   16 1   
    12    9   10 2   
    13    9   19 1   
    14   11   12 1   
    15   11   17 1   
    16   11   18 1   
    17   12   13 1   
    18   12   14 1   
    19   19   20 1   
    20   19   27 1   
    21   20   21 1   
    22   20   23 1   
    23   20   28 1   
    24   21   22 2   
    25   21   38 1   
    26   23   24 1   
    27   23   25 1   
    28   23   29 1   
    29   24   26 1   
    30   24   30 1   
    31   24   31 1   
    32   25   32 1   
    33   25   33 1   
    34   25   34 1   
    35   26   35 1   
    36   26   36 1   
    37   26   37 1   
    38   38   39 1   
    39   38   46 1   
    40   39   40 1   
    41   39   42 1   
    42   39   47 1   
    43   40   41 2   
    44   40   50 1   
    45   42   43 1   
    46   42   48 1   
    47   42   49 1   
    48   43   44 1   
    49   43   45 1   
    50   50   51 1   
    51   50   54 1   
    52   51   52 1   
    53   51   55 1   
    54   51   56 1   
    55   52   53 2   
    56   52   57 1   
    57   57   58 1   
    58   57   65 1   
    59   58   59 1   
    60   58   61 1   
    61   58   66 1   
    62   59   60 2   
    63   59   69 1   
    64   61   62 1   
    65   61   67 1   
    66   61   68 1   
    67   62   63 1   
    68   62   64 1   
    69   69   70 1   
    70   69   73 1   
    71   70   71 1   
    72   70   74 1   
    73   70   75 1   
    74   71   72 2   
    75   71   76 1   
    76   76   77 1   
    77   76   85 1   
    78   77   78 1   
    79   77   80 1   
    80   77   86 1   
    81   78   79 2   
    82   78   93 1   
    83   80   81 1   
    84   80   87 1   
    85   80   88 1   
    86   81   82 1   
    87   81   89 1   
    88   81   90 1   
    89   82   83 1   
    90   82   84 2   
    91   83   91 1   
    92   83   92 1   
    93   93   94 1   
    94   93  100 1   
    95   94   95 1   
    96   94   97 1   
    97   94  101 1   
    98   95   96 2   
    99   95  109 1   
   100   97   98 1   
   101   97   99 1   
   102   97  102 1   
   103   98  103 1   
   104   98  104 1   
   105   98  105 1   
   106   99  106 1   
   107   99  107 1   
   108   99  108 1   
   109  109  110 1   
   110  109  117 1   
   111  110  111 1   
   112  110  113 1   
   113  110  118 1   
   114  111  112 2   
   115  111  123 1   
   116  113  114 1   
   117  113  119 1   
   118  113  120 1   
   119  114  115 1   
   120  114  116 2   
   121  115  121 1   
   122  115  122 1   
   123  123  124 1   
   124  123  135 1   
   125  124  125 1   
   126  124  127 1   
   127  124  136 1   
   128  125  126 2   
   129  125  144 1   
   130  127  128 1   
   131  127  137 1   
   132  127  138 1   
   133  128  129 ar  
   134  128  130 ar  
   135  129  131 ar  
   136  129  139 1   
   137  130  132 ar  
   138  130  140 1   
   139  131  133 ar  
   140  131  141 1   
   141  132  133 ar  
   142  132  142 1   
   143  133  134 1   
   144  134  143 1   
   145  144  145 1   
   146  144  153 1   
   147  145  146 1   
   148  145  148 1   
   149  145  154 1   
   150  146  147 2   
   151  146  159 1   
   152  148  149 1   
   153  148  155 1   
   154  148  156 1   
   155  149  150 1   
   156  149  157 1   
   157  149  158 1   
   158  150  151 1   
   159  150  152 1   
   160  159  160 1   
   161  159  168 1   
   162  160  161 1   
   163  160  163 1   
   164  160  169 1   
   165  161  162 2   
   166  161  174 1   
   167  163  164 1   
   168  163  170 1   
   169  163  171 1   
   170  164  165 1   
   171  164  172 1   
   172  164  173 1   
   173  165  166 1   
   174  165  167 1   
   175  174  175 1   
   176  174  179 1   
   177  175  176 1   
   178  175  177 1   
   179  175  178 1   
   180  181  182 1   
   181  181  183 1   
   182  184  186 1   
   183  184  188 1   
   184  185  187 1   
   185  185  189 1   
   186  190  191 1   
   187  190  192 1   
   188  193  194 1   
   189  193  195 1   
   190  196  197 1   
   191  196  198 1   
   192  199  200 1   
   193  199  201 1   
@<TRIPOS>SUBSTRUCTURE
     1 MOL         1 TEMP              0 ****  ****    0 ROOT
