@<TRIPOS>MOLECULE
MOL
  198   191     1     0     0
SMALL
resp


@<TRIPOS>ATOM
      1 C1         -9.4040    6.4960   -2.5230 c3        1 MOL     -0.415530
      2 C2         -8.3110    5.5400   -2.0280 c         1 MOL      0.647863
      3 O1         -7.1530    5.8970   -1.8740 o         1 MOL     -0.620478
      4 H1         -9.6750    7.1830   -1.7210 hc        1 MOL      0.106114
      5 H2         -9.0330    7.0640   -3.3760 hc        1 MOL      0.106114
      6 H3        -10.2820    5.9220   -2.8210 hc        1 MOL      0.106114
      7 N1         -8.7200    4.3230   -1.8500 n         1 MOL     -0.405209
      8 C3         -7.9700    3.1540   -1.5350 c3        1 MOL      0.014362
      9 C4         -6.6190    3.1390   -2.3550 c         1 MOL      0.605765
     10 O2         -6.6080    3.0180   -3.5600 o         1 MOL     -0.474184
     11 C5         -8.8740    1.9520   -1.7290 c3        1 MOL     -0.397179
     12 C6         -8.2230    0.5490   -1.6340 c         1 MOL      0.779008
     13 O3         -8.0430   -0.1670   -2.6580 o         1 MOL     -0.678448
     14 O4         -7.8730    0.1300   -0.4950 o         1 MOL     -0.678448
     15 H4         -9.7250    4.1860   -1.8250 hn        1 MOL      0.287783
     16 H5         -7.7660    3.1900   -0.4590 h1        1 MOL      0.038860
     17 H6         -9.2060    2.0510   -2.7670 hc        1 MOL      0.096873
     18 H7         -9.6760    1.9390   -0.9900 hc        1 MOL      0.096873
     19 N2         -5.5090    3.2060   -1.6210 n         1 MOL     -0.464710
     20 C7         -4.1590    3.1200   -2.2140 c3        1 MOL      0.378619
     21 C8         -3.6830    1.9240   -3.0470 c         1 MOL      0.373179
     22 O5         -3.1510    2.1270   -4.1380 o         1 MOL     -0.552032
     23 C9         -3.1060    3.5160   -1.1080 c3        1 MOL     -0.249030
     24 C10        -3.1230    5.1010   -0.9470 c3        1 MOL     -0.027012
     25 C11        -2.3400    5.6520    0.3220 c3        1 MOL      0.020464
     26 C12        -2.6870    7.1260    0.4120 c3        1 MOL     -0.081895
     27 N3         -2.1580    7.7140    1.6830 n4        1 MOL     -0.239251
     28 H8         -5.5100    3.4020   -0.6300 hn        1 MOL      0.241552
     29 H9         -4.0840    3.8630   -3.0060 h1        1 MOL     -0.016063
     30 H10        -2.0890    3.3580   -1.4740 hc        1 MOL      0.076505
     31 H11        -3.2790    3.1290   -0.0950 hc        1 MOL      0.076505
     32 H12        -4.1170    5.5090   -0.7740 hc        1 MOL      0.040234
     33 H13        -2.7450    5.6300   -1.8240 hc        1 MOL      0.040234
     34 H14        -1.2630    5.5030    0.2500 hc        1 MOL      0.053615
     35 H15        -2.7620    5.1740    1.2060 hc        1 MOL      0.053615
     36 H16        -3.7690    7.2020    0.3300 hx        1 MOL      0.106493
     37 H17        -2.2690    7.5960   -0.4840 hx        1 MOL      0.106493
     38 H18        -2.6580    7.4270    2.5070 hn        1 MOL      0.293572
     39 H19        -1.1590    7.7970    1.8160 hn        1 MOL      0.293572
     40 H20        -2.3830    8.6970    1.6480 hn        1 MOL      0.293572
     41 N4         -3.8290    0.7140   -2.5910 n         1 MOL     -0.304504
     42 C13        -4.5500    0.1880   -1.4150 c3        1 MOL      0.242014
     43 C14        -5.0910   -1.2730   -1.6640 c         1 MOL      0.425548
     44 O6         -4.5400   -1.9340   -2.5170 o         1 MOL     -0.550927
     45 C15        -3.6390   -0.0660   -0.2210 c3        1 MOL     -0.288024
     46 C16        -2.4780   -1.0440   -0.3270 c         1 MOL      0.504875
     47 O7         -2.7360   -2.1870    0.0960 o         1 MOL     -0.635898
     48 O8         -1.3390   -0.8130   -0.8130 o         1 MOL     -0.635898
     49 H21        -3.4280    0.0530   -3.2530 hn        1 MOL      0.278445
     50 H22        -5.3740    0.8160   -1.0670 h1        1 MOL     -0.057991
     51 H23        -4.2380   -0.2640    0.6700 hc        1 MOL      0.047228
     52 H24        -3.1280    0.8390    0.0910 hc        1 MOL      0.047228
     53 N5         -6.0910   -1.8250   -0.9430 n         1 MOL     -0.024587
     54 C17        -6.5650   -3.2620   -0.9950 c3        1 MOL     -0.396278
     55 C18        -6.0400   -4.2540    0.0510 c         1 MOL      0.485521
     56 O9         -6.7380   -5.2270    0.3710 o         1 MOL     -0.541621
     57 H25        -6.6970   -1.1940   -0.4330 hn        1 MOL      0.145859
     58 H26        -6.2710   -3.8410   -1.8650 h1        1 MOL      0.178123
     59 H27        -7.6500   -3.2820   -0.8570 h1        1 MOL      0.178123
     60 N6         -4.8180   -4.0450    0.5900 n         1 MOL     -0.211977
     61 C19        -4.3030   -4.7100    1.8100 c3        1 MOL      0.188194
     62 C20        -5.2990   -4.9210    2.9800 c         1 MOL      0.576597
     63 O10        -5.6960   -6.0390    3.2890 o         1 MOL     -0.539355
     64 C21        -3.5710   -5.9810    1.5580 c3        1 MOL     -0.122427
     65 C22        -2.4770   -5.9250    0.4510 c         1 MOL      0.599352
     66 O11        -2.5820   -6.5080   -0.6420 o         1 MOL     -0.625056
     67 O12        -1.5170   -5.1730    0.6060 o         1 MOL     -0.625056
     68 H28        -4.2540   -3.3050    0.2000 hn        1 MOL      0.202841
     69 H29        -3.4970   -4.0820    2.1850 h1        1 MOL     -0.001693
     70 H30        -4.1810   -6.8570    1.3430 hc        1 MOL      0.021152
     71 H31        -2.9970   -6.2010    2.4610 hc        1 MOL      0.021152
     72 N7         -5.8590   -3.8780    3.6620 n         1 MOL     -0.563928
     73 C23        -5.2610   -2.4910    3.6190 c3        1 MOL      0.077623
     74 C24        -3.8750   -2.4050    4.2420 c         1 MOL      0.448562
     75 O13        -3.6140   -3.0980    5.1810 o         1 MOL     -0.537545
     76 H32        -6.5820   -4.0340    4.3560 hn        1 MOL      0.336431
     77 H33        -5.9470   -1.9030    4.2240 h1        1 MOL      0.040987
     78 H34        -5.2710   -2.1270    2.5920 h1        1 MOL      0.040987
     79 N8         -2.9750   -1.6240    3.7060 n         1 MOL     -0.420976
     80 C25        -1.5990   -1.3640    4.1140 c3        1 MOL      0.104319
     81 C26        -1.2380   -0.0030    3.5680 c         1 MOL      0.357373
     82 O14        -1.8530    0.3950    2.5670 o         1 MOL     -0.353804
     83 C27        -0.6990   -2.4730    3.5230 c3        1 MOL      0.336635
     84 C28         0.6590   -2.5780    4.2080 c3        1 MOL     -0.558436
     85 O15        -0.3740   -2.2360    2.1810 oh        1 MOL     -0.693690
     86 H35        -3.4220   -1.2350    2.8820 hn        1 MOL      0.219210
     87 H36        -1.4480   -1.4280    5.1840 h1        1 MOL      0.063263
     88 H37        -1.2060   -3.4140    3.7180 h1        1 MOL      0.103378
     89 H38        -0.1960   -1.2900    2.1480 ho        1 MOL      0.496198
     90 H39         0.9360   -3.5920    3.8990 hc        1 MOL      0.135660
     91 H40         1.4190   -1.8730    3.8680 hc        1 MOL      0.135660
     92 H41         0.4970   -2.4560    5.2770 hc        1 MOL      0.135660
     93 N9         -0.2910    0.7300    4.2110 n         1 MOL     -0.476295
     94 C29         0.4100    1.8980    3.5800 c3        1 MOL      0.106255
     95 C30         1.1980    1.4070    2.3050 c         1 MOL      0.512782
     96 O16         1.1180    0.2390    1.9220 o         1 MOL     -0.556767
     97 C31        -0.5390    3.1300    3.4360 c3        1 MOL      0.076224
     98 C32        -1.0800    3.6550    4.7930 c3        1 MOL      0.010120
     99 C33         0.0720    4.3320    2.6990 c3        1 MOL     -0.351478
    100 C34         0.0950    4.1530    5.7250 c3        1 MOL     -0.218800
    101 H42         0.2370    0.3570    4.9990 hn        1 MOL      0.307972
    102 H43         1.2100    2.0840    4.2920 h1        1 MOL      0.052557
    103 H44        -1.4160    2.8220    2.8650 hc        1 MOL      0.017967
    104 H45        -1.6630    2.9260    5.3480 hc        1 MOL      0.028798
    105 H46        -1.7060    4.5130    4.5960 hc        1 MOL      0.028798
    106 H47         1.0410    4.5980    3.1400 hc        1 MOL      0.069980
    107 H48         0.2910    4.0850    1.6620 hc        1 MOL      0.069980
    108 H49        -0.5610    5.2160    2.8110 hc        1 MOL      0.069980
    109 H50         0.8110    3.3400    5.8410 hc        1 MOL      0.056822
    110 H51         0.5590    5.0150    5.2430 hc        1 MOL      0.056822
    111 H52        -0.2460    4.4360    6.7200 hc        1 MOL      0.056822
    112 N10         2.0020    2.2460    1.6350 n         1 MOL     -0.377320
    113 C35         2.7630    1.9450    0.3430 c3        1 MOL      0.147332
    114 C36         4.3090    1.7890    0.5120 c         1 MOL      0.541002
    115 O17         5.0520    1.8890   -0.4590 o         1 MOL     -0.546451
    116 C37         2.3690    2.9400   -0.8260 c3        1 MOL      0.378977
    117 C38         2.9300    4.3730   -0.6630 c3        1 MOL     -0.384839
    118 O18         0.9410    3.0510   -0.8220 oh        1 MOL     -0.574984
    119 H53         2.1210    3.1510    2.0750 hn        1 MOL      0.175717
    120 H54         2.4870    0.9430    0.0080 h1        1 MOL      0.025370
    121 H55         2.7010    2.4430   -1.7260 h1        1 MOL     -0.006222
    122 H56         0.6300    2.1920   -1.1060 ho        1 MOL      0.380857
    123 H57         2.6960    4.7950    0.3100 hc        1 MOL      0.099732
    124 H58         4.0160    4.3450   -0.6410 hc        1 MOL      0.099732
    125 H59         2.5400    5.0510   -1.4220 hc        1 MOL      0.099732
    126 N11         4.8100    1.4240    1.7240 n         1 MOL     -0.431525
    127 C39         6.2380    1.5420    2.0000 c3        1 MOL     -0.134156
    128 C40         7.0560    0.5300    1.1550 c         1 MOL      0.479965
    129 O19         7.0420   -0.6620    1.2690 o         1 MOL     -0.480692
    130 C41         6.5690    1.3270    3.4900 c3        1 MOL      0.398676
    131 C42         7.9760    1.7510    3.7540 c3        1 MOL     -0.384683
    132 O20         5.7350    2.2450    4.1910 oh        1 MOL     -0.605739
    133 H60         4.1960    1.4200    2.5240 hn        1 MOL      0.231380
    134 H61         6.5690    2.5520    1.7790 h1        1 MOL      0.127972
    135 H62         6.4240    0.3050    3.8190 h1        1 MOL      0.032705
    136 H63         5.0500    1.7710    4.6780 ho        1 MOL      0.385365
    137 H64         8.7300    1.3170    3.0880 hc        1 MOL      0.098304
    138 H65         8.1120    2.8260    3.6740 hc        1 MOL      0.098304
    139 H66         8.3570    1.5090    4.7470 hc        1 MOL      0.098304
    140 N12         7.8910    1.1000    0.2680 n         1 MOL     -0.176940
    141 C43         8.6220    0.4850   -0.8800 c3        1 MOL     -0.071128
    142 C44         7.7390   -0.5810   -1.5000 c         1 MOL      0.558950
    143 O21         7.9490   -1.7960   -1.3920 o         1 MOL     -0.485231
    144 C45        10.1020    0.0430   -0.6160 c3        1 MOL     -0.283364
    145 C46        11.0160    1.2320   -0.1330 c3        1 MOL      0.028228
    146 C47        12.3690    0.5650    0.0610 c3        1 MOL      0.077624
    147 C48        13.3710    1.5020    0.7260 c3        1 MOL      0.033638
    148 N13        14.6980    0.7530    0.9000 n4        1 MOL     -0.250330
    149 H67         7.8210    2.1110    0.2790 hn        1 MOL      0.149320
    150 H68         8.7040    1.2790   -1.6220 h1        1 MOL      0.093499
    151 H69        10.5540   -0.3420   -1.5290 hc        1 MOL      0.115624
    152 H70        10.1130   -0.8300    0.0340 hc        1 MOL      0.115624
    153 H71        10.6660    1.5680    0.8390 hc        1 MOL      0.011006
    154 H72        11.1120    2.0270   -0.8710 hc        1 MOL      0.011006
    155 H73        12.7850    0.2040   -0.8810 hc        1 MOL      0.012846
    156 H74        12.3070   -0.3090    0.7040 hc        1 MOL      0.012846
    157 H75        13.0240    1.8050    1.7150 hx        1 MOL      0.058213
    158 H76        13.4120    2.4620    0.2240 hx        1 MOL      0.058213
    159 H77        15.1880    0.7230    0.0130 hn        1 MOL      0.211575
    160 H78        15.2550    1.2620    1.5640 hn        1 MOL      0.211575
    161 H79        14.6090   -0.1870    1.2500 hn        1 MOL      0.211575
    162 N14         6.7320   -0.1100   -2.2650 n         1 MOL     -0.445511
    163 C49         5.5590   -0.9400   -2.7000 c3        1 MOL      0.246931
    164 C50         4.2190   -0.2990   -2.6890 c         1 MOL      0.519116
    165 O22         3.3210   -0.8090   -2.0200 o         1 MOL     -0.646597
    166 C51         5.8790   -1.4650   -4.1540 c3        1 MOL     -0.098469
    167 C52         4.9820   -2.7090   -4.4370 c3        1 MOL     -0.081364
    168 C53         5.1440   -3.2770   -5.8500 c         1 MOL      0.703975
    169 O23         4.1240   -3.7420   -6.4210 o         1 MOL     -0.666161
    170 O24         6.2900   -3.2990   -6.3920 o         1 MOL     -0.666161
    171 H80         6.7430    0.8150   -2.6650 hn        1 MOL      0.211265
    172 H81         5.5420   -1.7160   -1.9340 h1        1 MOL      0.065733
    173 H82         6.9570   -1.6450   -4.1450 hc        1 MOL      0.027301
    174 H83         5.6260   -0.7310   -4.9220 hc        1 MOL      0.027301
    175 H84         3.9340   -2.4270   -4.3420 hc        1 MOL     -0.010142
    176 H85         5.1910   -3.5250   -3.7390 hc        1 MOL     -0.010142
    177 N15         3.9370    0.7920   -3.4150 n         1 MOL     -0.283405
    178 C54         4.7970    1.6770   -4.2980 c3        1 MOL     -0.321267
    179 H86         4.6400    1.4100   -5.3430 h1        1 MOL      0.144364
    180 H87         4.5220    2.7210   -4.1450 h1        1 MOL      0.144364
    181 H88         5.8470    1.5360   -4.0410 h1        1 MOL      0.144364
    182 H89         3.0210    1.1000   -3.0980 hn        1 MOL      0.264850
    183 Ca1        -0.3130   -3.2630   -0.3530 Ca        1 MOL      1.573867
    184 O25         1.5240   -4.5720    0.8820 oh        1 MOL     -0.793628
    185 H90         2.1120   -4.5860    1.6390 ho        1 MOL      0.400919
    186 H91         1.8890   -5.2430    0.2940 ho        1 MOL      0.400919
    187 O26         1.6930   -1.6470   -0.0470 oh        1 MOL     -0.793628
    188 H92         2.4570   -1.3990   -0.5650 ho        1 MOL      0.400919
    189 H93         1.4740   -0.8560    0.4390 ho        1 MOL      0.400919
    190 O27         1.0670   -4.8670   -1.9710 oh        1 MOL     -0.793628
    191 H94         1.6070   -5.6490   -2.1130 ho        1 MOL      0.400919
    192 H95         0.8720   -4.5440   -2.8480 ho        1 MOL      0.400919
    193 O28        -1.9120   -3.6480   -2.4600 oh        1 MOL     -0.793628
    194 H96        -2.7480   -3.2170   -2.6410 ho        1 MOL      0.400919
    195 H97        -1.6900   -4.0900   -3.2810 ho        1 MOL      0.400919
    196 O29         0.7710   -2.2790   -2.7280 oh        1 MOL     -0.793628
    197 H98         1.7160   -2.2300   -2.8610 ho        1 MOL      0.400919
    198 H99         0.4360   -2.6000   -3.5610 ho        1 MOL      0.400919
@<TRIPOS>BOND
     1    1    2 1   
     2    1    4 1   
     3    1    5 1   
     4    1    6 1   
     5    2    3 2   
     6    2    7 1   
     7    7    8 1   
     8    7   15 1   
     9    8    9 1   
    10    8   11 1   
    11    8   16 1   
    12    9   10 2   
    13    9   19 1   
    14   11   12 1   
    15   11   17 1   
    16   11   18 1   
    17   12   13 1   
    18   12   14 1   
    19   19   20 1   
    20   19   28 1   
    21   20   21 1   
    22   20   23 1   
    23   20   29 1   
    24   21   22 2   
    25   21   41 1   
    26   23   24 1   
    27   23   30 1   
    28   23   31 1   
    29   24   25 1   
    30   24   32 1   
    31   24   33 1   
    32   25   26 1   
    33   25   34 1   
    34   25   35 1   
    35   26   27 1   
    36   26   36 1   
    37   26   37 1   
    38   27   38 1   
    39   27   39 1   
    40   27   40 1   
    41   41   42 1   
    42   41   49 1   
    43   42   43 1   
    44   42   45 1   
    45   42   50 1   
    46   43   44 2   
    47   43   53 1   
    48   45   46 1   
    49   45   51 1   
    50   45   52 1   
    51   46   47 1   
    52   46   48 1   
    53   53   54 1   
    54   53   57 1   
    55   54   55 1   
    56   54   58 1   
    57   54   59 1   
    58   55   56 2   
    59   55   60 1   
    60   60   61 1   
    61   60   68 1   
    62   61   62 1   
    63   61   64 1   
    64   61   69 1   
    65   62   63 2   
    66   62   72 1   
    67   64   65 1   
    68   64   70 1   
    69   64   71 1   
    70   65   66 1   
    71   65   67 1   
    72   72   73 1   
    73   72   76 1   
    74   73   74 1   
    75   73   77 1   
    76   73   78 1   
    77   74   75 2   
    78   74   79 1   
    79   79   80 1   
    80   79   86 1   
    81   80   81 1   
    82   80   83 1   
    83   80   87 1   
    84   81   82 2   
    85   81   93 1   
    86   83   84 1   
    87   83   85 1   
    88   83   88 1   
    89   84   90 1   
    90   84   91 1   
    91   84   92 1   
    92   85   89 1   
    93   93   94 1   
    94   93  101 1   
    95   94   95 1   
    96   94   97 1   
    97   94  102 1   
    98   95   96 2   
    99   95  112 1   
   100   97   98 1   
   101   97   99 1   
   102   97  103 1   
   103   98  100 1   
   104   98  104 1   
   105   98  105 1   
   106   99  106 1   
   107   99  107 1   
   108   99  108 1   
   109  100  109 1   
   110  100  110 1   
   111  100  111 1   
   112  112  113 1   
   113  112  119 1   
   114  113  114 1   
   115  113  116 1   
   116  113  120 1   
   117  114  115 2   
   118  114  126 1   
   119  116  117 1   
   120  116  118 1   
   121  116  121 1   
   122  117  123 1   
   123  117  124 1   
   124  117  125 1   
   125  118  122 1   
   126  126  127 1   
   127  126  133 1   
   128  127  128 1   
   129  127  130 1   
   130  127  134 1   
   131  128  129 2   
   132  128  140 1   
   133  130  131 1   
   134  130  132 1   
   135  130  135 1   
   136  131  137 1   
   137  131  138 1   
   138  131  139 1   
   139  132  136 1   
   140  140  141 1   
   141  140  149 1   
   142  141  142 1   
   143  141  144 1   
   144  141  150 1   
   145  142  143 2   
   146  142  162 1   
   147  144  145 1   
   148  144  151 1   
   149  144  152 1   
   150  145  146 1   
   151  145  153 1   
   152  145  154 1   
   153  146  147 1   
   154  146  155 1   
   155  146  156 1   
   156  147  148 1   
   157  147  157 1   
   158  147  158 1   
   159  148  159 1   
   160  148  160 1   
   161  148  161 1   
   162  162  163 1   
   163  162  171 1   
   164  163  164 1   
   165  163  166 1   
   166  163  172 1   
   167  164  165 2   
   168  164  177 1   
   169  166  167 1   
   170  166  173 1   
   171  166  174 1   
   172  167  168 1   
   173  167  175 1   
   174  167  176 1   
   175  168  169 1   
   176  168  170 1   
   177  177  178 1   
   178  177  182 1   
   179  178  179 1   
   180  178  180 1   
   181  178  181 1   
   182  184  185 1   
   183  184  186 1   
   184  187  188 1   
   185  187  189 1   
   186  190  191 1   
   187  190  192 1   
   188  193  194 1   
   189  193  195 1   
   190  196  197 1   
   191  196  198 1   
@<TRIPOS>SUBSTRUCTURE
     1 MOL         1 TEMP              0 ****  ****    0 ROOT
