@<TRIPOS>MOLECULE
MOL
  191   184     1     0     0
SMALL
resp


@<TRIPOS>ATOM
      1 C1          0.7200    1.4370    3.0720 c3        1 MOL     -0.344043
      2 C2          1.8650    1.3850    2.0450 c         1 MOL      0.712632
      3 O1          1.7530    2.0010    0.9680 o         1 MOL     -0.572954
      4 H1          1.0930    1.1270    4.0470 hc        1 MOL      0.090865
      5 H2          0.3360    2.4550    3.1370 hc        1 MOL      0.090865
      6 H3         -0.0810    0.7660    2.7590 hc        1 MOL      0.090865
      7 N1          3.0080    0.6980    2.3440 n         1 MOL     -0.595620
      8 C3          4.2530    0.8230    1.5540 c3        1 MOL      0.045735
      9 C4          5.0570   -0.4560    1.4530 c         1 MOL      0.200295
     10 O2          6.2060   -0.4050    1.0440 o         1 MOL     -0.351658
     11 C5          5.1610    1.9560    2.1130 c3        1 MOL     -0.142187
     12 C6          5.7870    1.7310    3.4900 c         1 MOL      0.673342
     13 O3          6.6040    2.5820    3.9440 o         1 MOL     -0.695371
     14 O4          5.4210    0.8140    4.2530 o         1 MOL     -0.695371
     15 H4          3.0200    0.1530    3.1950 hn        1 MOL      0.305111
     16 H5          3.9620    1.2060    0.5710 h1        1 MOL      0.117261
     17 H6          4.5750    2.8680    2.2410 hc        1 MOL      0.061835
     18 H7          5.9390    2.2060    1.4000 hc        1 MOL      0.061835
     19 N2          4.5180   -1.6070    1.8090 n         1 MOL     -0.112014
     20 C7          5.0760   -2.9780    1.9130 c3        1 MOL      0.091768
     21 C8          5.7790   -3.3140    0.5220 c         1 MOL      0.278680
     22 O5          6.9360   -3.7320    0.4940 o         1 MOL     -0.494040
     23 C9          6.0410   -3.1060    3.0940 c3        1 MOL     -0.130904
     24 C10         5.3760   -3.2510    4.5050 c3        1 MOL     -0.075945
     25 C11         6.3750   -2.8970    5.5780 c3        1 MOL      0.144006
     26 C12         5.7370   -3.2210    6.8880 c3        1 MOL      0.048658
     27 N3          6.4390   -2.6260    8.0480 n4        1 MOL     -0.244189
     28 H8          3.5550   -1.5280    2.0780 hn        1 MOL      0.168281
     29 H9          4.2510   -3.6560    2.1020 h1        1 MOL      0.051831
     30 H10         6.6630   -2.2140    3.0290 hc        1 MOL      0.076971
     31 H11         6.7170   -3.9410    2.9050 hc        1 MOL      0.076971
     32 H12         5.1240   -4.3100    4.5560 hc        1 MOL      0.021181
     33 H13         4.4950   -2.6180    4.6040 hc        1 MOL      0.021181
     34 H14         6.7530   -1.8760    5.5910 hc        1 MOL     -0.003897
     35 H15         7.1880   -3.6170    5.4600 hc        1 MOL     -0.003897
     36 H16         5.6620   -4.2940    7.1010 hx        1 MOL      0.050639
     37 H17         4.7470   -2.7730    6.8530 hx        1 MOL      0.050639
     38 H18         6.0880   -2.9450    8.9310 hn        1 MOL      0.294595
     39 H19         7.4220   -2.8340    7.9450 hn        1 MOL      0.294595
     40 H20         6.3650   -1.6200    8.0890 hn        1 MOL      0.294595
     41 N4          5.0680   -3.0280   -0.5530 n         1 MOL     -0.267014
     42 C13         5.5340   -3.0930   -1.9870 c3        1 MOL      0.537845
     43 C14         5.6380   -1.6710   -2.6300 c         1 MOL      0.333463
     44 O6          5.3980   -1.5870   -3.8830 o         1 MOL     -0.517808
     45 C15         4.7620   -4.0660   -2.8810 c3        1 MOL     -0.837695
     46 C16         3.2110   -3.9550   -2.9450 c         1 MOL      0.918402
     47 O7          2.5430   -5.0050   -3.1930 o         1 MOL     -0.717594
     48 O8          2.5620   -2.9940   -2.5000 o         1 MOL     -0.717594
     49 H21         4.1400   -2.6550   -0.4360 hn        1 MOL      0.156422
     50 H22         6.5680   -3.4260   -1.9000 h1        1 MOL      0.015826
     51 H23         5.1360   -5.0420   -2.6020 hc        1 MOL      0.191733
     52 H24         5.2440   -4.0320   -3.8580 hc        1 MOL      0.191733
     53 N5          5.9380   -0.5990   -1.8710 n         1 MOL     -0.409495
     54 C17         5.6720    0.8220   -2.2010 c3        1 MOL      0.255157
     55 C18         6.9200    1.7980   -2.0390 c         1 MOL      0.368082
     56 O9          8.0300    1.2680   -1.6780 o         1 MOL     -0.488987
     57 H25         6.2450   -0.7080   -0.9180 hn        1 MOL      0.221314
     58 H26         4.8690    1.1280   -1.5300 h1        1 MOL      0.004987
     59 H27         5.2630    0.9780   -3.2010 h1        1 MOL      0.004987
     60 N6          6.7810    3.1080   -2.2340 n         1 MOL     -0.383875
     61 C19         5.4750    3.8290   -2.2080 c3        1 MOL      0.186456
     62 C20         5.1160    4.3430   -0.7380 c         1 MOL      0.628444
     63 O10         5.9730    4.6430    0.0870 o         1 MOL     -0.542794
     64 C21         5.6440    5.1100   -3.0860 c3        1 MOL     -0.534112
     65 C22         6.4230    4.7530   -4.4110 c         1 MOL      0.724337
     66 N7          5.7890    3.9590   -5.2740 n         1 MOL     -0.868302
     67 O11         7.5730    5.0500   -4.6990 o         1 MOL     -0.532082
     68 H28         7.6210    3.6870   -2.2250 hn        1 MOL      0.311104
     69 H29         4.7120    3.2580   -2.7280 h1        1 MOL      0.004263
     70 H30         6.2640    5.8920   -2.6310 hc        1 MOL      0.151459
     71 H31         4.7290    5.6510   -3.3280 hc        1 MOL      0.151459
     72 H32         4.8350    3.6900   -5.0520 hn        1 MOL      0.393522
     73 H33         6.2790    3.5270   -6.0510 hn        1 MOL      0.393522
     74 N8          3.8380    4.4950   -0.4380 n         1 MOL     -0.520553
     75 C23         2.6340    3.9820   -1.0740 c3        1 MOL     -0.009928
     76 C24         1.3620    4.5950   -0.4670 c         1 MOL      0.776384
     77 O12         1.4320    5.6700    0.1230 o         1 MOL     -0.572548
     78 H34         3.7370    4.9590    0.4600 hn        1 MOL      0.311450
     79 H35         2.6050    2.9070   -0.9020 h1        1 MOL      0.029959
     80 H36         2.6450    4.1970   -2.1420 h1        1 MOL      0.029959
     81 N9          0.2200    3.9930   -0.6460 n         1 MOL     -0.669670
     82 C25        -1.0570    4.5480   -0.2380 c3        1 MOL      0.192228
     83 C26        -2.1650    3.6130    0.1190 c         1 MOL      0.694128
     84 O13        -2.2090    2.4620   -0.4540 o         1 MOL     -0.563171
     85 C27        -1.4700    5.6930   -1.1870 c3        1 MOL     -0.192691
     86 C28        -2.5750    6.6010   -0.7280 ca        1 MOL     -0.007028
     87 C29        -3.7660    6.6560   -1.5200 ca        1 MOL     -0.045919
     88 C30        -2.5500    7.2590    0.4660 ca        1 MOL     -0.045919
     89 C31        -4.8520    7.4380   -1.0760 ca        1 MOL     -0.359496
     90 C32        -3.6130    8.0750    0.9090 ca        1 MOL     -0.359496
     91 C33        -4.7920    8.1460    0.1260 ca        1 MOL      0.450840
     92 O14        -5.7320    9.0020    0.4670 oh        1 MOL     -0.504448
     93 H37         0.1740    3.0550   -1.0110 hn        1 MOL      0.316179
     94 H38        -0.8890    5.0110    0.7280 h1        1 MOL      0.024661
     95 H39        -1.7390    5.1200   -2.0770 hc        1 MOL      0.080834
     96 H40        -0.5950    6.3020   -1.4270 hc        1 MOL      0.080834
     97 H41        -3.8340    6.0460   -2.3990 ha        1 MOL      0.116676
     98 H42        -1.7000    7.1600    1.1270 ha        1 MOL      0.116676
     99 H43        -5.7990    7.3810   -1.5950 ha        1 MOL      0.164198
    100 H44        -3.6570    8.5290    1.8810 ha        1 MOL      0.164198
    101 H45        -5.5400    9.4840    1.2750 ho        1 MOL      0.373801
    102 N10        -3.0990    3.9590    1.0440 n         1 MOL     -0.635392
    103 C34        -4.2340    3.1400    1.5420 c3        1 MOL      0.026035
    104 C35        -5.1570    2.7220    0.4570 c         1 MOL      0.444652
    105 O15        -5.2880    3.5800   -0.4890 o         1 MOL     -0.488985
    106 C36        -4.9170    3.8150    2.7900 c3        1 MOL      0.102272
    107 C37        -5.4690    5.1740    2.4700 c3        1 MOL      0.301641
    108 C38        -5.8580    2.9030    3.6510 c3        1 MOL     -0.312273
    109 C39        -5.7670    6.0240    3.7180 c3        1 MOL     -0.377011
    110 H46        -3.1780    4.9510    1.2340 hn        1 MOL      0.278688
    111 H47        -3.8130    2.2210    1.9420 h1        1 MOL      0.089987
    112 H48        -4.0500    3.9850    3.4280 hc        1 MOL      0.025827
    113 H49        -6.2990    5.0680    1.7640 hc        1 MOL     -0.051664
    114 H50        -4.7270    5.7700    1.9380 hc        1 MOL     -0.051664
    115 H51        -6.1780    3.3570    4.5910 hc        1 MOL      0.082006
    116 H52        -6.7790    2.7220    3.0930 hc        1 MOL      0.082006
    117 H53        -5.3380    1.9950    3.9420 hc        1 MOL      0.082006
    118 H54        -6.2970    5.5470    4.5510 hc        1 MOL      0.080214
    119 H55        -4.7810    6.3640    4.0290 hc        1 MOL      0.080214
    120 H56        -6.4190    6.7980    3.3290 hc        1 MOL      0.080214
    121 N11        -5.8380    1.5670    0.5270 n         1 MOL     -0.395750
    122 C40        -6.6170    1.0280   -0.6270 c3        1 MOL      0.136490
    123 C41        -5.6780    0.0540   -1.3650 c         1 MOL      0.639255
    124 O16        -4.8210   -0.5870   -0.7510 o         1 MOL     -0.513289
    125 C42        -7.8780    0.3740   -0.2020 c3        1 MOL     -0.090026
    126 O17        -7.4370   -0.6870    0.6710 oh        1 MOL     -0.405516
    127 H57        -5.5480    0.9000    1.2290 hn        1 MOL      0.264745
    128 H58        -6.8410    1.8020   -1.3570 h1        1 MOL      0.027198
    129 H59        -8.4610   -0.0910   -0.9870 h1        1 MOL      0.088724
    130 H60        -8.5360    1.0340    0.3650 h1        1 MOL      0.088724
    131 H61        -8.0370   -1.3980    0.4470 ho        1 MOL      0.366514
    132 N12        -5.8070   -0.0840   -2.6570 n         1 MOL     -0.479369
    133 C43        -5.1390   -1.0790   -3.4670 c3        1 MOL      0.173971
    134 C44        -5.3210   -2.5500   -2.9510 c         1 MOL      0.384509
    135 O18        -4.3950   -3.2980   -3.0340 o         1 MOL     -0.435557
    136 C45        -3.6450   -0.7360   -3.6820 c3        1 MOL     -0.387516
    137 H62        -6.6520    0.3450   -3.0170 hn        1 MOL      0.265767
    138 H63        -5.5930   -1.1290   -4.4600 h1        1 MOL      0.056847
    139 H64        -3.1260   -0.8410   -2.7270 hc        1 MOL      0.132506
    140 H65        -3.1750   -1.4320   -4.3720 hc        1 MOL      0.132506
    141 H66        -3.6370    0.2950   -4.0170 hc        1 MOL      0.132506
    142 N13        -6.4930   -2.8780   -2.3790 n         1 MOL     -0.338739
    143 C46        -6.9240   -4.0960   -1.7340 c3        1 MOL      0.063345
    144 C47        -6.1530   -4.4750   -0.4110 c         1 MOL      0.350266
    145 O19        -6.0830   -5.6320   -0.1060 o         1 MOL     -0.464583
    146 C48        -6.7760   -5.2320   -2.7820 c3        1 MOL     -0.126769
    147 H67        -7.1450   -2.1130   -2.3970 hn        1 MOL      0.202580
    148 H68        -7.9980   -3.9880   -1.5730 h1        1 MOL      0.065246
    149 H69        -7.3270   -6.1610   -2.5880 hc        1 MOL      0.043195
    150 H70        -6.9840   -4.9100   -3.8000 hc        1 MOL      0.043195
    151 H71        -5.7220   -5.4850   -2.6530 hc        1 MOL      0.043195
    152 N14        -5.6080   -3.4480    0.2170 n         1 MOL     -0.094267
    153 C49        -4.8030   -3.8230    1.3830 c3        1 MOL      0.055160
    154 C50        -5.5740   -3.6950    2.7560 c         1 MOL      0.421945
    155 O20        -5.3140   -4.4920    3.6390 o         1 MOL     -0.479233
    156 C51        -3.6020   -2.9120    1.3460 c3        1 MOL      0.113741
    157 C52        -2.3460   -3.3860    2.1850 c3        1 MOL     -0.309896
    158 C53        -1.4640   -4.3810    1.3990 c         1 MOL      0.789051
    159 O21        -0.6400   -3.9940    0.5480 o         1 MOL     -0.714150
    160 O22        -1.6580   -5.6250    1.5500 o         1 MOL     -0.714150
    161 H72        -5.6870   -2.4990   -0.1210 hn        1 MOL      0.015190
    162 H73        -4.3550   -4.8020    1.2410 h1        1 MOL      0.049318
    163 H74        -3.8560   -1.8890    1.5790 hc        1 MOL      0.000997
    164 H75        -3.3350   -2.9380    0.2900 hc        1 MOL      0.000997
    165 H76        -2.6740   -3.8710    3.1110 hc        1 MOL      0.059400
    166 H77        -1.6580   -2.6080    2.5240 hc        1 MOL      0.059400
    167 N15        -6.6090   -2.8330    2.7670 n         1 MOL     -0.230616
    168 C54        -7.4700   -2.8890    3.9820 c3        1 MOL     -0.117738
    169 H78        -6.8910   -3.2780    4.8200 h1        1 MOL      0.075823
    170 H79        -7.8270   -1.8870    4.2220 h1        1 MOL      0.075823
    171 H80        -8.3220   -3.5430    3.7950 h1        1 MOL      0.075823
    172 H81        -6.9130   -2.2500    1.9950 hn        1 MOL      0.084916
    173 Ca1         0.4790   -4.3930   -1.7990 Ca        1 MOL      1.756067
    174 O23        -0.3460   -6.3960   -3.6190 oh        1 MOL     -0.862742
    175 H82        -1.2470   -6.3030   -3.9030 ho        1 MOL      0.412288
    176 H83        -0.1750   -7.3350   -3.6550 ho        1 MOL      0.412288
    177 O24        -0.1540   -3.1800   -4.0870 oh        1 MOL     -0.862742
    178 H84         0.3260   -2.6120   -4.6840 ho        1 MOL      0.412288
    179 H85        -0.9570   -3.4010   -4.5580 ho        1 MOL      0.412288
    180 O25        -0.6630   -6.8320   -0.5680 oh        1 MOL     -0.862742
    181 H86        -1.0210   -6.3090    0.1540 ho        1 MOL      0.412288
    182 H87        -1.4420   -7.1660   -1.0210 ho        1 MOL      0.412288
    183 O26        -0.2770   -1.8950   -1.2240 oh        1 MOL     -0.862742
    184 H88        -0.8310   -1.4630   -0.5770 ho        1 MOL      0.412288
    185 H89        -0.2190   -1.2650   -1.9480 ho        1 MOL      0.412288
    186 O27         2.3430   -4.9910    0.0760 oh        1 MOL     -0.862742
    187 H90         2.9740   -5.6860   -0.1480 ho        1 MOL      0.412288
    188 H91         2.3240   -4.9900    1.0270 ho        1 MOL      0.412288
    189 O28        -2.2200   -4.5990   -2.1000 oh        1 MOL     -0.862742
    190 H92        -2.9150   -4.2100   -2.6300 ho        1 MOL      0.412288
    191 H93        -2.6530   -5.3140   -1.6190 ho        1 MOL      0.412288
@<TRIPOS>BOND
     1    1    2 1   
     2    1    4 1   
     3    1    5 1   
     4    1    6 1   
     5    2    3 2   
     6    2    7 1   
     7    7    8 1   
     8    7   15 1   
     9    8    9 1   
    10    8   11 1   
    11    8   16 1   
    12    9   10 2   
    13    9   19 1   
    14   11   12 1   
    15   11   17 1   
    16   11   18 1   
    17   12   13 1   
    18   12   14 1   
    19   19   20 1   
    20   19   28 1   
    21   20   21 1   
    22   20   23 1   
    23   20   29 1   
    24   21   22 2   
    25   21   41 1   
    26   23   24 1   
    27   23   30 1   
    28   23   31 1   
    29   24   25 1   
    30   24   32 1   
    31   24   33 1   
    32   25   26 1   
    33   25   34 1   
    34   25   35 1   
    35   26   27 1   
    36   26   36 1   
    37   26   37 1   
    38   27   38 1   
    39   27   39 1   
    40   27   40 1   
    41   41   42 1   
    42   41   49 1   
    43   42   43 1   
    44   42   45 1   
    45   42   50 1   
    46   43   44 2   
    47   43   53 1   
    48   45   46 1   
    49   45   51 1   
    50   45   52 1   
    51   46   47 1   
    52   46   48 1   
    53   53   54 1   
    54   53   57 1   
    55   54   55 1   
    56   54   58 1   
    57   54   59 1   
    58   55   56 2   
    59   55   60 1   
    60   60   61 1   
    61   60   68 1   
    62   61   62 1   
    63   61   64 1   
    64   61   69 1   
    65   62   63 2   
    66   62   74 1   
    67   64   65 1   
    68   64   70 1   
    69   64   71 1   
    70   65   66 1   
    71   65   67 2   
    72   66   72 1   
    73   66   73 1   
    74   74   75 1   
    75   74   78 1   
    76   75   76 1   
    77   75   79 1   
    78   75   80 1   
    79   76   77 2   
    80   76   81 1   
    81   81   82 1   
    82   81   93 1   
    83   82   83 1   
    84   82   85 1   
    85   82   94 1   
    86   83   84 2   
    87   83  102 1   
    88   85   86 1   
    89   85   95 1   
    90   85   96 1   
    91   86   87 ar  
    92   86   88 ar  
    93   87   89 ar  
    94   87   97 1   
    95   88   90 ar  
    96   88   98 1   
    97   89   91 ar  
    98   89   99 1   
    99   90   91 ar  
   100   90  100 1   
   101   91   92 1   
   102   92  101 1   
   103  102  103 1   
   104  102  110 1   
   105  103  104 1   
   106  103  106 1   
   107  103  111 1   
   108  104  105 2   
   109  104  121 1   
   110  106  107 1   
   111  106  108 1   
   112  106  112 1   
   113  107  109 1   
   114  107  113 1   
   115  107  114 1   
   116  108  115 1   
   117  108  116 1   
   118  108  117 1   
   119  109  118 1   
   120  109  119 1   
   121  109  120 1   
   122  121  122 1   
   123  121  127 1   
   124  122  123 1   
   125  122  125 1   
   126  122  128 1   
   127  123  124 2   
   128  123  132 1   
   129  125  126 1   
   130  125  129 1   
   131  125  130 1   
   132  126  131 1   
   133  132  133 1   
   134  132  137 1   
   135  133  134 1   
   136  133  136 1   
   137  133  138 1   
   138  134  135 2   
   139  134  142 1   
   140  136  139 1   
   141  136  140 1   
   142  136  141 1   
   143  142  143 1   
   144  142  147 1   
   145  143  144 1   
   146  143  146 1   
   147  143  148 1   
   148  144  145 2   
   149  144  152 1   
   150  146  149 1   
   151  146  150 1   
   152  146  151 1   
   153  152  153 1   
   154  152  161 1   
   155  153  154 1   
   156  153  156 1   
   157  153  162 1   
   158  154  155 2   
   159  154  167 1   
   160  156  157 1   
   161  156  163 1   
   162  156  164 1   
   163  157  158 1   
   164  157  165 1   
   165  157  166 1   
   166  158  159 1   
   167  158  160 1   
   168  167  168 1   
   169  167  172 1   
   170  168  169 1   
   171  168  170 1   
   172  168  171 1   
   173  174  175 1   
   174  174  176 1   
   175  177  178 1   
   176  177  179 1   
   177  180  181 1   
   178  180  182 1   
   179  183  184 1   
   180  183  185 1   
   181  186  187 1   
   182  186  188 1   
   183  189  190 1   
   184  189  191 1   
@<TRIPOS>SUBSTRUCTURE
     1 MOL         1 TEMP              0 ****  ****    0 ROOT
