@<TRIPOS>MOLECULE
MOL
  181   177     1     0     0
SMALL
resp


@<TRIPOS>ATOM
      1 C1          2.3100   -2.6680    4.4680 c3        1 MOL     -0.290839
      2 C2          3.5190   -1.9920    3.6760 c         1 MOL      0.733302
      3 O1          3.3710   -1.6810    2.5110 o         1 MOL     -0.564912
      4 H1          2.4120   -2.4590    5.5320 hc        1 MOL      0.070461
      5 H2          1.3660   -2.2600    4.1060 hc        1 MOL      0.070461
      6 H3          2.3270   -3.7450    4.3070 hc        1 MOL      0.070461
      7 N1          4.7180   -1.8770    4.2460 n         1 MOL     -0.673375
      8 C3          5.7880   -1.0000    3.8600 c3        1 MOL      0.243551
      9 C4          6.7810   -1.5900    2.8130 c         1 MOL      0.187896
     10 O2          7.2590   -0.9040    1.8780 o         1 MOL     -0.353706
     11 C5          6.6470   -0.5800    5.0440 c3        1 MOL     -0.131782
     12 C6          7.5070    0.5620    4.5940 c         1 MOL      0.683531
     13 O3          7.0520    1.6270    4.3690 o         1 MOL     -0.699973
     14 O4          8.7110    0.3060    4.3410 o         1 MOL     -0.699973
     15 H4          4.8220   -2.2730    5.1750 hn        1 MOL      0.307343
     16 H5          5.3260   -0.0590    3.5620 h1        1 MOL      0.100204
     17 H6          7.2150   -1.4170    5.4720 hc        1 MOL     -0.029735
     18 H7          6.0510   -0.2550    5.9000 hc        1 MOL     -0.029735
     19 N2          6.8850   -2.9560    2.9440 n         1 MOL     -0.275942
     20 C7          7.3930   -3.8090    1.8830 c3        1 MOL      0.224676
     21 C8          6.6320   -3.6580    0.5420 c         1 MOL      0.415893
     22 O5          7.1870   -3.6140   -0.5380 o         1 MOL     -0.492148
     23 C9          8.9680   -3.8300    1.6910 c3        1 MOL     -0.273906
     24 H8          6.5220   -3.4010    3.7780 hn        1 MOL      0.238969
     25 H9          7.0810   -4.7840    2.2600 h1        1 MOL     -0.005906
     26 H10         9.4120   -4.1500    2.6320 hc        1 MOL      0.067331
     27 H11         9.1160   -4.6080    0.9410 hc        1 MOL      0.067331
     28 H12         9.4000   -2.9520    1.2130 hc        1 MOL      0.067331
     29 N3          5.4030   -3.2790    0.6090 n         1 MOL     -0.427889
     30 C10         4.5700   -3.0320   -0.5870 c3        1 MOL     -0.082008
     31 C11         4.9910   -1.8760   -1.4550 c         1 MOL      0.543531
     32 O6          4.5700   -1.6900   -2.6240 o         1 MOL     -0.518886
     33 C12         4.1990   -4.3630   -1.2450 c3        1 MOL      0.019306
     34 C13         3.0060   -4.3490   -2.1830 c         1 MOL      0.775156
     35 O7          3.0910   -5.0730   -3.2060 o         1 MOL     -0.786232
     36 O8          1.8990   -3.8350   -1.7980 o         1 MOL     -0.786232
     37 H13         4.9270   -3.0190    1.4560 hn        1 MOL      0.234232
     38 H14         3.6120   -2.6460   -0.2340 h1        1 MOL      0.165331
     39 H15         3.9950   -5.1870   -0.5510 hc        1 MOL      0.011364
     40 H16         5.0770   -4.7900   -1.7200 hc        1 MOL      0.011364
     41 N4          5.8510   -0.9840   -0.9800 n         1 MOL     -0.293489
     42 C14         6.4900    0.0430   -1.7060 c3        1 MOL     -0.050556
     43 C15         5.5890    1.2500   -2.1150 c         1 MOL      0.608370
     44 O9          6.1230    2.2960   -2.3340 o         1 MOL     -0.586566
     45 H17         6.3860   -1.1930   -0.1560 hn        1 MOL      0.251493
     46 H18         7.0090   -0.3960   -2.5610 h1        1 MOL      0.066326
     47 H19         7.3080    0.4610   -1.1240 h1        1 MOL      0.066326
     48 N5          4.2670    1.1170   -2.0000 n         1 MOL     -0.344522
     49 C16         3.2330    2.0810   -2.4490 c3        1 MOL     -0.122812
     50 C17         3.2570    3.3140   -1.4890 c         1 MOL      0.497404
     51 O10         3.3540    3.2590   -0.2380 o         1 MOL     -0.461384
     52 C18         1.8620    1.4070   -2.4410 c3        1 MOL     -0.381447
     53 C19         1.7450    0.3670   -3.5100 c         1 MOL      0.819508
     54 N6          1.2880    0.8060   -4.7080 n         1 MOL     -0.838079
     55 O11         1.8060   -0.8470   -3.3050 o         1 MOL     -0.574064
     56 H20         3.9850    0.1580   -1.8670 hn        1 MOL      0.181556
     57 H21         3.3390    2.3970   -3.4920 h1        1 MOL      0.087254
     58 H22         1.1450    2.2090   -2.5970 hc        1 MOL      0.194055
     59 H23         1.6870    0.9180   -1.4790 hc        1 MOL      0.194055
     60 H24         1.1370    1.7960   -4.8980 hn        1 MOL      0.350575
     61 H25         1.3880    0.1500   -5.4620 hn        1 MOL      0.350575
     62 N7          3.4000    4.5590   -2.0690 n         1 MOL     -0.246046
     63 C20         3.3160    5.8130   -1.4200 c3        1 MOL     -0.095338
     64 C21         1.9620    6.4270   -1.7910 c         1 MOL      0.470793
     65 O12         1.2580    5.9570   -2.7430 o         1 MOL     -0.531135
     66 H26         3.5270    4.5110   -3.0710 hn        1 MOL      0.210087
     67 H27         4.1440    6.4120   -1.7820 h1        1 MOL      0.093064
     68 H28         3.4230    5.7380   -0.3340 h1        1 MOL      0.093064
     69 N8          1.5490    7.3610   -0.9830 n         1 MOL     -0.346091
     70 C22         0.2060    7.9490   -0.8690 c3        1 MOL      0.066114
     71 C23        -0.9150    7.0160   -0.2280 c         1 MOL      0.399375
     72 O13        -1.8500    7.5650    0.4220 o         1 MOL     -0.547014
     73 C24         0.2900    9.3290   -0.2040 c3        1 MOL      0.311800
     74 C25         0.9860    9.4220    1.2000 c3        1 MOL     -0.315210
     75 O14         1.0750   10.1900   -1.0000 oh        1 MOL     -0.652055
     76 H29         2.1750    7.7580   -0.2890 hn        1 MOL      0.247183
     77 H30        -0.1540    8.1620   -1.8740 h1        1 MOL      0.086690
     78 H31        -0.6730    9.8250   -0.2240 h1        1 MOL      0.014761
     79 H32         0.8070   11.0520   -0.6760 ho        1 MOL      0.401774
     80 H33         0.9150   10.4610    1.5000 hc        1 MOL      0.081312
     81 H34         0.4430    8.8740    1.9640 hc        1 MOL      0.081312
     82 H35         2.0240    9.0960    1.1750 hc        1 MOL      0.081312
     83 N9         -0.7910    5.7030   -0.3900 n         1 MOL     -0.292802
     84 C26        -1.4800    4.6570    0.4390 c3        1 MOL      0.058301
     85 C27        -1.6680    3.3380   -0.3100 c         1 MOL      0.459346
     86 O15        -1.2110    3.2080   -1.4410 o         1 MOL     -0.459222
     87 C28        -0.6770    4.4290    1.7490 c3        1 MOL      0.089912
     88 C29         0.5960    3.6140    1.5880 c3        1 MOL     -0.062109
     89 C30        -0.5120    5.6070    2.6660 c3        1 MOL     -0.349942
     90 C31         1.1100    2.8350    2.7960 c3        1 MOL     -0.141411
     91 H36        -0.0230    5.3960   -0.9790 hn        1 MOL      0.163646
     92 H37        -2.4810    4.9540    0.7760 h1        1 MOL      0.059911
     93 H38        -1.3050    3.7040    2.2690 hc        1 MOL     -0.016898
     94 H39         1.3910    4.3130    1.3530 hc        1 MOL      0.076777
     95 H40         0.5420    2.9390    0.7380 hc        1 MOL      0.076777
     96 H41         0.2520    6.2620    2.2420 hc        1 MOL      0.095414
     97 H42        -1.4700    6.1250    2.6650 hc        1 MOL      0.095414
     98 H43        -0.3740    5.3420    3.7200 hc        1 MOL      0.095414
     99 H44         2.0900    2.4250    2.5380 hc        1 MOL      0.043576
    100 H45         1.2030    3.6030    3.5540 hc        1 MOL      0.043576
    101 H46         0.4130    2.0330    3.0320 hc        1 MOL      0.043576
    102 N10        -2.4050    2.3510    0.2110 n         1 MOL     -0.482607
    103 C32        -2.5630    1.0170   -0.3730 c3        1 MOL      0.012696
    104 C33        -3.9100    0.3370   -0.1080 c         1 MOL      0.578811
    105 O16        -4.0960   -0.8740   -0.3350 o         1 MOL     -0.490052
    106 C34        -1.3350    0.2080    0.0090 c3        1 MOL      0.208123
    107 C35        -0.8680   -0.7010   -1.1880 c         1 MOL      0.344923
    108 O17        -0.0380   -1.5960   -0.9080 o         1 MOL     -0.671713
    109 O18        -1.2170   -0.5030   -2.3900 o         1 MOL     -0.671713
    110 H47        -2.8380    2.4230    1.1130 hn        1 MOL      0.237225
    111 H48        -2.5860    1.1790   -1.4520 h1        1 MOL      0.069175
    112 H49        -1.6010   -0.3930    0.8780 hc        1 MOL     -0.020431
    113 H50        -0.5630    0.9180    0.2940 hc        1 MOL     -0.020431
    114 N11        -4.9210    1.1570    0.2090 n         1 MOL     -0.464414
    115 C36        -6.2890    0.6560    0.3000 c3        1 MOL      0.261026
    116 C37        -6.4400   -0.4950    1.2650 c         1 MOL      0.278382
    117 O19        -5.9270   -0.4860    2.3960 o         1 MOL     -0.512244
    118 C38        -7.2360    1.7970    0.6930 c3        1 MOL     -0.218651
    119 C39        -8.7370    1.4320    0.5390 ca        1 MOL      0.115110
    120 C40        -9.3570    1.4010   -0.7330 ca        1 MOL     -0.210152
    121 C41        -9.5020    0.9580    1.6490 ca        1 MOL     -0.210152
    122 C42       -10.6750    0.9250   -0.8970 ca        1 MOL     -0.064393
    123 C43       -10.8150    0.5560    1.4930 ca        1 MOL     -0.064393
    124 C44       -11.4460    0.5840    0.2270 ca        1 MOL     -0.158648
    125 H51        -4.7270    2.1460    0.1630 hn        1 MOL      0.252069
    126 H52        -6.4950    0.3180   -0.7170 h1        1 MOL     -0.010479
    127 H53        -7.0670    2.6030   -0.0230 hc        1 MOL      0.088623
    128 H54        -6.9590    2.1970    1.6650 hc        1 MOL      0.088623
    129 H55        -8.8520    1.6700   -1.6510 ha        1 MOL      0.134105
    130 H56        -9.0760    1.0640    2.6420 ha        1 MOL      0.134105
    131 H57       -11.1470    0.7940   -1.8680 ha        1 MOL      0.100799
    132 H58       -11.4220    0.3690    2.3690 ha        1 MOL      0.100799
    133 H59       -12.4760    0.2280    0.1930 ha        1 MOL      0.112853
    134 N12        -7.0140   -1.6000    0.7360 n         1 MOL      0.089107
    135 C45        -7.3650   -2.7830    1.5320 c3        1 MOL     -0.054492
    136 C46        -6.0940   -3.4980    2.0890 c         1 MOL      0.399204
    137 O20        -6.1680   -4.2690    3.0540 o         1 MOL     -0.555066
    138 C47        -8.3090   -3.6440    0.6010 c3        1 MOL     -0.137626
    139 C48        -7.8230   -3.2630   -0.7860 c3        1 MOL      0.000766
    140 C49        -7.4670   -1.8350   -0.6370 c3        1 MOL     -0.044760
    141 H60        -7.9240   -2.5080    2.4260 h1        1 MOL      0.079143
    142 H61        -8.1760   -4.7270    0.7230 hc        1 MOL      0.054658
    143 H62        -9.3150   -3.3130    0.8540 hc        1 MOL      0.054658
    144 H63        -6.9280   -3.8500   -0.9780 hc        1 MOL      0.033874
    145 H64        -8.5610   -3.4140   -1.5840 hc        1 MOL      0.033874
    146 H65        -6.6370   -1.6960   -1.3280 h1        1 MOL      0.034899
    147 H66        -8.3040   -1.1960   -0.9460 h1        1 MOL      0.034899
    148 N13        -4.8930   -3.2270    1.6270 n         1 MOL     -0.057304
    149 C50        -3.6840   -3.6820    2.3190 c3        1 MOL     -0.192369
    150 C51        -3.2570   -2.6690    3.4740 c         1 MOL      0.418940
    151 O21        -2.8700   -3.0580    4.5870 o         1 MOL     -0.541804
    152 C52        -2.5180   -3.8870    1.3090 c3        1 MOL     -0.004244
    153 C53        -3.0260   -4.6000    0.0780 c3        1 MOL     -0.319937
    154 C54        -1.9600   -4.7920   -1.0480 c         1 MOL      0.812260
    155 O22        -1.9230   -3.8760   -1.9430 o         1 MOL     -0.721613
    156 O23        -1.3450   -5.8670   -1.1960 o         1 MOL     -0.721613
    157 H67        -4.8630   -2.4940    0.9450 hn        1 MOL      0.150122
    158 H68        -3.8670   -4.6650    2.7530 h1        1 MOL      0.150243
    159 H69        -1.6740   -4.4250    1.7260 hc        1 MOL      0.067050
    160 H70        -2.0070   -2.9530    1.0700 hc        1 MOL      0.067050
    161 H71        -3.7830   -3.9830   -0.4120 hc        1 MOL      0.052723
    162 H72        -3.4890   -5.5590    0.3070 hc        1 MOL      0.052723
    163 N14        -3.4650   -1.3680    3.2500 n         1 MOL     -0.019633
    164 C55        -3.2030   -0.4060    4.2970 c3        1 MOL     -0.232413
    165 H73        -2.5940   -0.8710    5.0730 h1        1 MOL      0.082396
    166 H74        -2.6700    0.4490    3.8820 h1        1 MOL      0.082396
    167 H75        -4.1460   -0.0720    4.7290 h1        1 MOL      0.082396
    168 H76        -4.0400   -1.0860    2.4660 hn        1 MOL      0.127595
    169 Ca1         0.0450   -2.8180   -3.2060 Ca        1 MOL      1.846503
    170 O24         1.7890   -3.7080   -5.0660 oh        1 MOL     -0.870250
    171 H77         2.3470   -4.2370   -4.5050 ho        1 MOL      0.405499
    172 H78         1.3620   -4.3490   -5.6530 ho        1 MOL      0.405499
    173 O25        -0.6490   -1.1430   -5.1140 oh        1 MOL     -0.870250
    174 H79        -0.2440   -0.3080   -4.8950 ho        1 MOL      0.405499
    175 H80        -1.2420   -0.9420   -5.8400 ho        1 MOL      0.405499
    176 O26         0.4260   -5.6800   -3.2710 oh        1 MOL     -0.870250
    177 H81        -0.0060   -6.0330   -2.4940 ho        1 MOL      0.405499
    178 H82         1.3500   -5.8910   -3.1440 ho        1 MOL      0.405499
    179 O27        -1.3920   -4.0160   -5.0460 oh        1 MOL     -0.870250
    180 H83        -2.1060   -3.8000   -5.6390 ho        1 MOL      0.405499
    181 H84        -0.7770   -4.5270   -5.5760 ho        1 MOL      0.405499
@<TRIPOS>BOND
     1    1    2 1   
     2    1    4 1   
     3    1    5 1   
     4    1    6 1   
     5    2    3 2   
     6    2    7 1   
     7    7    8 1   
     8    7   15 1   
     9    8    9 1   
    10    8   11 1   
    11    8   16 1   
    12    9   10 2   
    13    9   19 1   
    14   11   12 1   
    15   11   17 1   
    16   11   18 1   
    17   12   13 1   
    18   12   14 1   
    19   19   20 1   
    20   19   24 1   
    21   20   21 1   
    22   20   23 1   
    23   20   25 1   
    24   21   22 2   
    25   21   29 1   
    26   23   26 1   
    27   23   27 1   
    28   23   28 1   
    29   29   30 1   
    30   29   37 1   
    31   30   31 1   
    32   30   33 1   
    33   30   38 1   
    34   31   32 2   
    35   31   41 1   
    36   33   34 1   
    37   33   39 1   
    38   33   40 1   
    39   34   35 1   
    40   34   36 1   
    41   41   42 1   
    42   41   45 1   
    43   42   43 1   
    44   42   46 1   
    45   42   47 1   
    46   43   44 2   
    47   43   48 1   
    48   48   49 1   
    49   48   56 1   
    50   49   50 1   
    51   49   52 1   
    52   49   57 1   
    53   50   51 2   
    54   50   62 1   
    55   52   53 1   
    56   52   58 1   
    57   52   59 1   
    58   53   54 1   
    59   53   55 2   
    60   54   60 1   
    61   54   61 1   
    62   62   63 1   
    63   62   66 1   
    64   63   64 1   
    65   63   67 1   
    66   63   68 1   
    67   64   65 2   
    68   64   69 1   
    69   69   70 1   
    70   69   76 1   
    71   70   71 1   
    72   70   73 1   
    73   70   77 1   
    74   71   72 2   
    75   71   83 1   
    76   73   74 1   
    77   73   75 1   
    78   73   78 1   
    79   74   80 1   
    80   74   81 1   
    81   74   82 1   
    82   75   79 1   
    83   83   84 1   
    84   83   91 1   
    85   84   85 1   
    86   84   87 1   
    87   84   92 1   
    88   85   86 2   
    89   85  102 1   
    90   87   88 1   
    91   87   89 1   
    92   87   93 1   
    93   88   90 1   
    94   88   94 1   
    95   88   95 1   
    96   89   96 1   
    97   89   97 1   
    98   89   98 1   
    99   90   99 1   
   100   90  100 1   
   101   90  101 1   
   102  102  103 1   
   103  102  110 1   
   104  103  104 1   
   105  103  106 1   
   106  103  111 1   
   107  104  105 2   
   108  104  114 1   
   109  106  107 1   
   110  106  112 1   
   111  106  113 1   
   112  107  108 1   
   113  107  109 1   
   114  114  115 1   
   115  114  125 1   
   116  115  116 1   
   117  115  118 1   
   118  115  126 1   
   119  116  117 2   
   120  116  134 1   
   121  118  119 1   
   122  118  127 1   
   123  118  128 1   
   124  119  120 ar  
   125  119  121 ar  
   126  120  122 ar  
   127  120  129 1   
   128  121  123 ar  
   129  121  130 1   
   130  122  124 ar  
   131  122  131 1   
   132  123  124 ar  
   133  123  132 1   
   134  124  133 1   
   135  134  135 1   
   136  134  140 1   
   137  135  136 1   
   138  135  138 1   
   139  135  141 1   
   140  136  137 2   
   141  136  148 1   
   142  138  139 1   
   143  138  142 1   
   144  138  143 1   
   145  139  140 1   
   146  139  144 1   
   147  139  145 1   
   148  140  146 1   
   149  140  147 1   
   150  148  149 1   
   151  148  157 1   
   152  149  150 1   
   153  149  152 1   
   154  149  158 1   
   155  150  151 2   
   156  150  163 1   
   157  152  153 1   
   158  152  159 1   
   159  152  160 1   
   160  153  154 1   
   161  153  161 1   
   162  153  162 1   
   163  154  155 1   
   164  154  156 1   
   165  163  164 1   
   166  163  168 1   
   167  164  165 1   
   168  164  166 1   
   169  164  167 1   
   170  170  171 1   
   171  170  172 1   
   172  173  174 1   
   173  173  175 1   
   174  176  177 1   
   175  176  178 1   
   176  179  180 1   
   177  179  181 1   
@<TRIPOS>SUBSTRUCTURE
     1 MOL         1 TEMP              0 ****  ****    0 ROOT
