@<TRIPOS>MOLECULE
MOL
  179   176     1     0     0
SMALL
resp


@<TRIPOS>ATOM
      1 C1          3.2130    0.4830    6.1570 c3        1 MOL     -0.428942
      2 C2          3.0600    0.8270    4.6670 c         1 MOL      0.726555
      3 O1          3.9420    0.5360    3.8200 o         1 MOL     -0.579277
      4 H1          2.2430    0.5620    6.6490 hc        1 MOL      0.120914
      5 H2          3.5910   -0.5340    6.2590 hc        1 MOL      0.120914
      6 H3          3.9120    1.1790    6.6210 hc        1 MOL      0.120914
      7 N1          1.8970    1.4280    4.2920 n         1 MOL     -0.580330
      8 C3          1.5940    1.6030    2.8990 c3        1 MOL     -0.058115
      9 C4          2.3920    2.7760    2.2790 c         1 MOL      0.645281
     10 O2          2.3320    3.9160    2.8250 o         1 MOL     -0.560239
     11 C5          0.0620    1.8020    2.8430 c3        1 MOL     -0.122553
     12 C6         -0.5890    1.7350    1.4280 c         1 MOL      0.322238
     13 O3         -1.8560    1.7290    1.3300 o         1 MOL     -0.575998
     14 O4          0.1630    1.6770    0.4540 o         1 MOL     -0.575998
     15 H4          1.1980    1.6410    4.9900 hn        1 MOL      0.336792
     16 H5          1.9060    0.7350    2.3270 h1        1 MOL      0.055563
     17 H6         -0.1740    2.7880    3.2690 hc        1 MOL      0.075734
     18 H7         -0.3300    0.9750    3.4280 hc        1 MOL      0.075734
     19 N2          2.8770    2.6500    1.0390 n         1 MOL     -0.489015
     20 C7          3.5780    3.7510    0.3290 c3        1 MOL     -0.122475
     21 C8          2.6450    4.7630   -0.3130 c         1 MOL      0.544270
     22 O5          3.0280    5.9120   -0.4230 o         1 MOL     -0.537428
     23 C9          4.4440    3.0800   -0.7190 c3        1 MOL      0.256407
     24 C10         5.5320    3.9550   -1.2220 c3        1 MOL     -0.139220
     25 C11         6.7870    3.9520   -0.4110 c3        1 MOL      0.050255
     26 C12         7.8630    4.9470   -0.9560 c3        1 MOL     -0.053535
     27 N3          8.9980    5.0100    0.0770 n4        1 MOL     -0.199119
     28 H8          2.8310    1.7510    0.5870 hn        1 MOL      0.335452
     29 H9          4.2580    4.2850    0.9870 h1        1 MOL      0.108431
     30 H10         3.7800    2.9270   -1.5750 hc        1 MOL     -0.029849
     31 H11         4.8780    2.1740   -0.2960 hc        1 MOL     -0.029849
     32 H12         5.2040    4.9830   -1.3760 hc        1 MOL      0.037928
     33 H13         5.8230    3.5230   -2.1830 hc        1 MOL      0.037928
     34 H14         7.2600    2.9690   -0.4850 hc        1 MOL      0.019923
     35 H15         6.5600    4.2100    0.6250 hc        1 MOL      0.019923
     36 H16         7.4430    5.9460   -0.8690 hx        1 MOL      0.110662
     37 H17         8.2410    4.6500   -1.9330 hx        1 MOL      0.110662
     38 H18         8.8680    4.4490    0.9010 hn        1 MOL      0.284271
     39 H19         9.9170    4.8910   -0.3070 hn        1 MOL      0.284271
     40 H20         8.9450    5.9180    0.5430 hn        1 MOL      0.284271
     41 N4          1.4160    4.3260   -0.6150 n         1 MOL     -0.290847
     42 C13         0.4040    5.2560   -1.1710 c3        1 MOL     -0.028921
     43 C14        -0.7890    5.6050   -0.1820 c         1 MOL      0.437944
     44 O6         -1.6110    6.5420   -0.4120 o         1 MOL     -0.510468
     45 C15        -0.2620    4.6480   -2.4220 c3        1 MOL     -0.142888
     46 C16        -0.6920    3.2270   -2.2690 c         1 MOL      0.706687
     47 O7         -1.6710    3.0460   -1.5240 o         1 MOL     -0.774779
     48 O8         -0.0950    2.2360   -2.8270 o         1 MOL     -0.774779
     49 H21         1.0470    3.4880   -0.2030 hn        1 MOL      0.235693
     50 H22         0.8340    6.2420   -1.3240 h1        1 MOL      0.107209
     51 H23         0.4610    4.7420   -3.2340 hc        1 MOL      0.053283
     52 H24        -1.0870    5.2560   -2.7920 hc        1 MOL      0.053283
     53 N5         -0.9300    4.8770    0.9450 n         1 MOL     -0.251511
     54 C17        -2.0920    4.9910    1.8570 c3        1 MOL      0.034196
     55 C18        -3.5170    4.8020    1.2100 c         1 MOL      0.421549
     56 O9         -4.4320    5.4440    1.7330 o         1 MOL     -0.549464
     57 H25        -0.3300    4.0970    1.1740 hn        1 MOL      0.189750
     58 H26        -2.1080    5.9820    2.3180 h1        1 MOL      0.061191
     59 H27        -1.9110    4.3150    2.6840 h1        1 MOL      0.061191
     60 N6         -3.6770    4.0380    0.1500 n         1 MOL      0.015667
     61 C19        -4.8220    3.8080   -0.7340 c3        1 MOL     -0.135896
     62 C20        -5.1450    2.2960   -0.9190 c         1 MOL      0.535405
     63 O10        -4.2610    1.4980   -1.2370 o         1 MOL     -0.553934
     64 C21        -4.4850    4.4960   -2.0360 c3        1 MOL     -0.060232
     65 C22        -5.5730    4.6020   -3.1170 c         1 MOL      0.575571
     66 N7         -5.4780    3.7760   -4.0910 n         1 MOL     -0.807613
     67 O11        -6.3720    5.4910   -2.9800 o         1 MOL     -0.555792
     68 H28        -2.8900    3.4420   -0.0810 hn        1 MOL      0.012159
     69 H29        -5.6370    4.2920   -0.1910 h1        1 MOL      0.063546
     70 H30        -3.6230    3.9740   -2.4480 hc        1 MOL      0.087976
     71 H31        -4.1730    5.5230   -1.8770 hc        1 MOL      0.087976
     72 H32        -4.7980    3.0550   -3.9070 hn        1 MOL      0.382857
     73 H33        -6.0800    3.9310   -4.8870 hn        1 MOL      0.382857
     74 N8         -6.4310    1.8650   -0.8310 n         1 MOL     -0.372327
     75 C23        -6.9120    0.4860   -1.0480 c3        1 MOL     -0.174135
     76 C24        -6.4440   -0.5790   -0.0770 c         1 MOL      0.679367
     77 O12        -6.6670   -0.5180    1.1590 o         1 MOL     -0.541205
     78 H34        -7.1460    2.5120   -0.5290 hn        1 MOL      0.315634
     79 H35        -6.6960    0.0280   -2.0170 h1        1 MOL      0.101282
     80 H36        -7.9940    0.5720   -1.1070 h1        1 MOL      0.101282
     81 N9         -5.8670   -1.6510   -0.6340 n         1 MOL     -0.625906
     82 C25        -5.0880   -2.6590    0.2290 c3        1 MOL      0.241151
     83 C26        -3.7390   -2.1530    0.7770 c         1 MOL      0.447108
     84 O13        -3.3060   -1.0410    0.3760 o         1 MOL     -0.501278
     85 C27        -4.9030   -3.8330   -0.7100 c3        1 MOL     -0.180518
     86 C28        -6.1820   -4.6420   -1.0820 ca        1 MOL      0.163375
     87 C29        -6.7510   -4.4810   -2.3560 ca        1 MOL     -0.229132
     88 C30        -6.6880   -5.5670   -0.1650 ca        1 MOL     -0.229132
     89 C31        -7.9900   -5.0950   -2.6700 ca        1 MOL     -0.215909
     90 C32        -7.7700   -6.3490   -0.5090 ca        1 MOL     -0.215909
     91 C33        -8.4870   -6.0710   -1.7100 ca        1 MOL      0.303947
     92 O14        -9.5470   -6.8990   -1.9690 oh        1 MOL     -0.466820
     93 H37        -5.7830   -1.7500   -1.6290 hn        1 MOL      0.331980
     94 H38        -5.6950   -2.8870    1.0960 h1        1 MOL      0.032209
     95 H39        -4.2350   -4.5490   -0.2400 hc        1 MOL      0.032819
     96 H40        -4.3250   -3.5200   -1.5820 hc        1 MOL      0.032819
     97 H41        -6.2610   -3.8230   -3.0610 ha        1 MOL      0.148686
     98 H42        -6.1740   -5.7070    0.7670 ha        1 MOL      0.148686
     99 H43        -8.4200   -5.1490   -3.6640 ha        1 MOL      0.155857
    100 H44        -8.1300   -7.0550    0.2230 ha        1 MOL      0.155857
    101 H45        -9.5680   -7.6110   -1.3220 ho        1 MOL      0.355579
    102 N10        -3.2160   -2.8360    1.7810 n         1 MOL     -0.484300
    103 C34        -2.2660   -2.4190    2.8780 c3        1 MOL      0.224940
    104 C35        -0.9540   -2.0010    2.3260 c         1 MOL      0.277033
    105 O15        -0.8960   -1.1030    1.4680 o         1 MOL     -0.351664
    106 C36        -2.9120   -1.3330    3.7340 c3        1 MOL      0.157301
    107 C37        -2.2090   -1.2150    5.1150 c3        1 MOL     -0.104788
    108 C38        -4.4470   -1.5800    3.9380 c3        1 MOL     -0.421050
    109 C39        -2.2540   -2.4520    6.1050 c3        1 MOL     -0.046443
    110 H46        -3.6680   -3.7290    1.9060 hn        1 MOL      0.260674
    111 H47        -2.1670   -3.3120    3.4790 h1        1 MOL      0.023716
    112 H48        -2.7440   -0.4400    3.1370 hc        1 MOL      0.024833
    113 H49        -2.6280   -0.3330    5.6030 hc        1 MOL      0.042314
    114 H50        -1.1520   -1.0120    4.9240 hc        1 MOL      0.042314
    115 H51        -5.0140   -1.4780    3.0120 hc        1 MOL      0.124036
    116 H52        -4.6510   -2.4640    4.5360 hc        1 MOL      0.124036
    117 H53        -4.9250   -0.8260    4.5600 hc        1 MOL      0.124036
    118 H54        -1.6720   -2.1740    6.9850 hc        1 MOL      0.013150
    119 H55        -3.3000   -2.6850    6.2760 hc        1 MOL      0.013150
    120 H56        -1.9430   -3.4120    5.6880 hc        1 MOL      0.013150
    121 N11         0.0810   -2.5670    2.8330 n         1 MOL     -0.429425
    122 C40         1.4570   -2.1750    2.7580 c3        1 MOL     -0.108647
    123 C41         2.0100   -2.3490    1.3460 c         1 MOL      0.448568
    124 O16         3.1290   -1.8250    1.0930 o         1 MOL     -0.504588
    125 C42         2.3580   -2.9420    3.7330 c3        1 MOL      0.116893
    126 O17         1.9520   -2.8610    5.1120 oh        1 MOL     -0.600989
    127 H57        -0.0380   -3.2020    3.6030 hn        1 MOL      0.256266
    128 H58         1.4590   -1.1370    3.0980 h1        1 MOL      0.232386
    129 H59         3.3760   -2.5580    3.7020 h1        1 MOL      0.109451
    130 H60         2.4300   -3.9870    3.4360 h1        1 MOL      0.109451
    131 H61         1.0580   -3.1890    5.2410 ho        1 MOL      0.374735
    132 N12         1.2700   -2.9170    0.3480 n         1 MOL     -0.360622
    133 C43         1.6790   -2.8180   -0.9880 c3        1 MOL     -0.014477
    134 C44         1.6390   -1.3640   -1.5350 c         1 MOL      0.880624
    135 O18         0.5830   -0.7320   -1.3900 o         1 MOL     -0.698907
    136 C45         1.0210   -3.8670   -1.7980 c3        1 MOL     -0.399343
    137 H62         0.3210   -3.2260    0.5120 hn        1 MOL      0.273777
    138 H63         2.7200   -3.1330   -0.9760 h1        1 MOL      0.119764
    139 H64         1.5660   -4.0390   -2.7220 hc        1 MOL      0.119697
    140 H65         0.9230   -4.7990   -1.2340 hc        1 MOL      0.119697
    141 H66         0.0340   -3.4670   -2.0290 hc        1 MOL      0.119697
    142 N13         2.6490   -0.8450   -2.3050 n         1 MOL     -0.849402
    143 C46         3.9980   -1.2400   -2.2190 c3        1 MOL      0.229326
    144 C47         4.4440   -2.6280   -2.7060 c         1 MOL      0.713783
    145 O19         3.9710   -3.0590   -3.7290 o         1 MOL     -0.588070
    146 C48         4.7650   -0.1410   -2.9290 c3        1 MOL     -0.265929
    147 H67         2.4460   -0.0550   -2.8960 hn        1 MOL      0.449355
    148 H68         4.2560   -1.1700   -1.1590 h1        1 MOL      0.068340
    149 H69         4.5990   -0.1230   -4.0120 hc        1 MOL      0.080400
    150 H70         4.4500    0.8210   -2.5260 hc        1 MOL      0.080400
    151 H71         5.8310   -0.1960   -2.7100 hc        1 MOL      0.080400
    152 N14         5.4210   -3.3560   -2.1120 n         1 MOL     -0.526642
    153 C49         6.0250   -3.1830   -0.8130 c3        1 MOL     -0.207478
    154 C50         6.3570   -4.4800   -0.1180 c         1 MOL      0.618982
    155 O20         6.2040   -4.5610    1.1160 o         1 MOL     -0.583333
    156 C51         7.2950   -2.3660   -1.0120 c3        1 MOL      0.122838
    157 C52         8.5640   -3.0450   -1.5330 c3        1 MOL     -0.023739
    158 C53         8.3780   -3.4490   -2.9950 c         1 MOL      0.635816
    159 O21         8.8290   -2.5860   -3.8060 o         1 MOL     -0.674242
    160 O22         7.9220   -4.6240   -3.3530 o         1 MOL     -0.674242
    161 H72         5.7040   -4.2090   -2.5760 hn        1 MOL      0.260375
    162 H73         5.2770   -2.6910   -0.1890 h1        1 MOL      0.076486
    163 H74         7.6720   -1.9390   -0.0870 hc        1 MOL     -0.026968
    164 H75         7.0140   -1.5890   -1.7130 hc        1 MOL     -0.026968
    165 H76         8.7600   -3.9450   -0.9600 hc        1 MOL     -0.023672
    166 H77         9.3870   -2.3350   -1.4500 hc        1 MOL     -0.023672
    167 N15         6.7480   -5.5280   -0.8880 n         1 MOL     -0.273887
    168 C54         6.7640   -6.9230   -0.4310 c3        1 MOL     -0.162585
    169 H78         6.8890   -6.9480    0.6510 h1        1 MOL      0.076735
    170 H79         5.8230   -7.4040   -0.6980 h1        1 MOL      0.076735
    171 H80         7.5910   -7.4520   -0.9050 h1        1 MOL      0.076735
    172 H81         7.1160   -5.2940   -1.7930 hn        1 MOL      0.240489
    173 Ca1        -1.7000    0.5100   -1.0110 Ca        1 MOL      1.781377
    174 O23        -2.3410    1.0600   -3.5690 oh        1 MOL     -0.821348
    175 H82        -1.5830    1.6580   -3.6160 ho        1 MOL      0.404230
    176 H83        -2.7210    1.0810   -4.4400 ho        1 MOL      0.404230
    177 O24        -1.9200   -1.9350   -2.1690 oh        1 MOL     -0.821348
    178 H84        -1.5570   -2.7220   -1.7620 ho        1 MOL      0.404230
    179 H85        -1.7570   -2.0560   -3.1030 ho        1 MOL      0.404230
@<TRIPOS>BOND
     1    1    2 1   
     2    1    4 1   
     3    1    5 1   
     4    1    6 1   
     5    2    3 2   
     6    2    7 1   
     7    7    8 1   
     8    7   15 1   
     9    8    9 1   
    10    8   11 1   
    11    8   16 1   
    12    9   10 2   
    13    9   19 1   
    14   11   12 1   
    15   11   17 1   
    16   11   18 1   
    17   12   13 1   
    18   12   14 1   
    19   19   20 1   
    20   19   28 1   
    21   20   21 1   
    22   20   23 1   
    23   20   29 1   
    24   21   22 2   
    25   21   41 1   
    26   23   24 1   
    27   23   30 1   
    28   23   31 1   
    29   24   25 1   
    30   24   32 1   
    31   24   33 1   
    32   25   26 1   
    33   25   34 1   
    34   25   35 1   
    35   26   27 1   
    36   26   36 1   
    37   26   37 1   
    38   27   38 1   
    39   27   39 1   
    40   27   40 1   
    41   41   42 1   
    42   41   49 1   
    43   42   43 1   
    44   42   45 1   
    45   42   50 1   
    46   43   44 2   
    47   43   53 1   
    48   45   46 1   
    49   45   51 1   
    50   45   52 1   
    51   46   47 1   
    52   46   48 1   
    53   53   54 1   
    54   53   57 1   
    55   54   55 1   
    56   54   58 1   
    57   54   59 1   
    58   55   56 2   
    59   55   60 1   
    60   60   61 1   
    61   60   68 1   
    62   61   62 1   
    63   61   64 1   
    64   61   69 1   
    65   62   63 2   
    66   62   74 1   
    67   64   65 1   
    68   64   70 1   
    69   64   71 1   
    70   65   66 1   
    71   65   67 2   
    72   66   72 1   
    73   66   73 1   
    74   74   75 1   
    75   74   78 1   
    76   75   76 1   
    77   75   79 1   
    78   75   80 1   
    79   76   77 2   
    80   76   81 1   
    81   81   82 1   
    82   81   93 1   
    83   82   83 1   
    84   82   85 1   
    85   82   94 1   
    86   83   84 2   
    87   83  102 1   
    88   85   86 1   
    89   85   95 1   
    90   85   96 1   
    91   86   87 ar  
    92   86   88 ar  
    93   87   89 ar  
    94   87   97 1   
    95   88   90 ar  
    96   88   98 1   
    97   89   91 ar  
    98   89   99 1   
    99   90   91 ar  
   100   90  100 1   
   101   91   92 1   
   102   92  101 1   
   103  102  103 1   
   104  102  110 1   
   105  103  104 1   
   106  103  106 1   
   107  103  111 1   
   108  104  105 2   
   109  104  121 1   
   110  106  107 1   
   111  106  108 1   
   112  106  112 1   
   113  107  109 1   
   114  107  113 1   
   115  107  114 1   
   116  108  115 1   
   117  108  116 1   
   118  108  117 1   
   119  109  118 1   
   120  109  119 1   
   121  109  120 1   
   122  121  122 1   
   123  121  127 1   
   124  122  123 1   
   125  122  125 1   
   126  122  128 1   
   127  123  124 2   
   128  123  132 1   
   129  125  126 1   
   130  125  129 1   
   131  125  130 1   
   132  126  131 1   
   133  132  133 1   
   134  132  137 1   
   135  133  134 1   
   136  133  136 1   
   137  133  138 1   
   138  134  135 2   
   139  134  142 1   
   140  136  139 1   
   141  136  140 1   
   142  136  141 1   
   143  142  143 1   
   144  142  147 1   
   145  143  144 1   
   146  143  146 1   
   147  143  148 1   
   148  144  145 2   
   149  144  152 1   
   150  146  149 1   
   151  146  150 1   
   152  146  151 1   
   153  152  153 1   
   154  152  161 1   
   155  153  154 1   
   156  153  156 1   
   157  153  162 1   
   158  154  155 2   
   159  154  167 1   
   160  156  157 1   
   161  156  163 1   
   162  156  164 1   
   163  157  158 1   
   164  157  165 1   
   165  157  166 1   
   166  158  159 1   
   167  158  160 1   
   168  167  168 1   
   169  167  172 1   
   170  168  169 1   
   171  168  170 1   
   172  168  171 1   
   173  174  175 1   
   174  174  176 1   
   175  177  178 1   
   176  177  179 1   
@<TRIPOS>SUBSTRUCTURE
     1 MOL         1 TEMP              0 ****  ****    0 ROOT
