@<TRIPOS>MOLECULE
MOL
  185   180     1     0     0
SMALL
resp


@<TRIPOS>ATOM
      1 C1          4.7200    3.5620    2.4860 c3        1 MOL     -0.221387
      2 C2          5.3120    2.7520    1.2700 c         1 MOL      0.671526
      3 O1          4.8830    1.5580    1.1070 o         1 MOL     -0.653086
      4 H1          5.5300    4.0580    3.0210 hc        1 MOL      0.060204
      5 H2          4.0170    4.3100    2.1190 hc        1 MOL      0.060204
      6 H3          4.2040    2.8800    3.1620 hc        1 MOL      0.060204
      7 N1          6.3780    3.2810    0.6520 n         1 MOL     -0.590729
      8 C3          7.3240    2.7350   -0.3540 c3        1 MOL     -0.130783
      9 C4          7.8880    1.3980    0.0290 c         1 MOL      0.581883
     10 O2          8.4150    0.6890   -0.8170 o         1 MOL     -0.524514
     11 C5          6.6880    2.7600   -1.7580 c3        1 MOL     -0.278377
     12 C6          6.3140    4.2020   -2.0850 c         1 MOL      0.758908
     13 O3          6.9440    5.2790   -1.7020 o         1 MOL     -0.674113
     14 O4          5.3780    4.3210   -2.8770 o         1 MOL     -0.674113
     15 H4          6.4660    4.2500    0.9350 hn        1 MOL      0.336487
     16 H5          8.2130    3.3700   -0.3610 h1        1 MOL      0.121960
     17 H6          5.7810    2.1620   -1.8140 hc        1 MOL      0.124420
     18 H7          7.4550    2.5390   -2.4970 hc        1 MOL      0.124420
     19 N2          7.8190    1.0300    1.2670 n         1 MOL     -0.413074
     20 C7          8.0330   -0.3700    1.6440 c3        1 MOL     -0.078840
     21 C8          7.0810   -1.4260    1.1330 c         1 MOL      0.701017
     22 O5          7.4980   -2.5710    1.0550 o         1 MOL     -0.604144
     23 C9          8.2460   -0.5190    3.1830 c3        1 MOL     -0.213372
     24 C10         9.5400    0.1360    3.6610 c3        1 MOL      0.161231
     25 C11         9.4260   -0.1250    5.1950 c3        1 MOL     -0.155233
     26 C12        10.6550    0.4350    5.9330 c3        1 MOL      0.027867
     27 N3         11.7960   -0.4670    5.6710 n4        1 MOL     -0.296782
     28 H8          7.4800    1.6610    1.9840 hn        1 MOL      0.319463
     29 H9          8.9450   -0.6180    1.1100 h1        1 MOL      0.093288
     30 H10         8.2460   -1.5750    3.4460 hc        1 MOL      0.075362
     31 H11         7.3810   -0.0450    3.6330 hc        1 MOL      0.075362
     32 H12         9.5450    1.1790    3.3360 hc        1 MOL     -0.006461
     33 H13        10.4240   -0.2990    3.1840 hc        1 MOL     -0.006461
     34 H14         9.3060   -1.1970    5.3590 hc        1 MOL      0.077179
     35 H15         8.5220    0.3820    5.5350 hc        1 MOL      0.077179
     36 H16        10.5220    0.5980    7.0000 hx        1 MOL      0.080907
     37 H17        10.7960    1.4210    5.4900 hx        1 MOL      0.080907
     38 H18        11.8720   -0.7440    4.7010 hn        1 MOL      0.267012
     39 H19        12.7040   -0.1830    6.0030 hn        1 MOL      0.267012
     40 H20        11.6460   -1.2850    6.2460 hn        1 MOL      0.267012
     41 N4          5.8500   -1.0850    0.7080 n         1 MOL     -0.617039
     42 C13         4.9160   -2.0230    0.1640 c3        1 MOL      0.236151
     43 C14         4.9210   -1.9640   -1.3900 c         1 MOL      0.507071
     44 O6          5.0060   -0.8640   -1.9360 o         1 MOL     -0.481255
     45 C15         3.5580   -1.7840    0.7450 c3        1 MOL     -0.139249
     46 C16         2.4260   -2.7390    0.2690 c         1 MOL      0.734781
     47 O7          2.0210   -2.7190   -0.8940 o         1 MOL     -0.781705
     48 O8          2.0730   -3.6570    1.0300 o         1 MOL     -0.781705
     49 H21         5.7170   -0.0900    0.6060 hn        1 MOL      0.400525
     50 H22         5.3090   -3.0230    0.3400 h1        1 MOL      0.001117
     51 H23         3.1590   -0.7800    0.6470 hc        1 MOL      0.064616
     52 H24         3.6440   -1.9820    1.8130 hc        1 MOL      0.064616
     53 N5          4.6080   -3.0230   -2.1580 n         1 MOL     -0.356742
     54 C17         4.4420   -3.0200   -3.6240 c3        1 MOL     -0.269891
     55 C18         3.3600   -2.1570   -4.2110 c         1 MOL      0.524108
     56 O9          3.3990   -1.9810   -5.4650 o         1 MOL     -0.575698
     57 H25         4.3710   -3.8880   -1.7030 hn        1 MOL      0.217536
     58 H26         4.1900   -4.0140   -3.9970 h1        1 MOL      0.149044
     59 H27         5.4260   -2.7370   -3.9970 h1        1 MOL      0.149044
     60 N6          2.4260   -1.5560   -3.4510 n         1 MOL     -0.306350
     61 C19         1.3940   -0.5960   -3.9200 c3        1 MOL      0.012325
     62 C20         1.7810    0.8090   -3.5690 c         1 MOL      0.505501
     63 O10         1.3010    1.7190   -4.2430 o         1 MOL     -0.542418
     64 C21         0.0080   -1.0180   -3.3280 c3        1 MOL     -0.358385
     65 C22        -0.4120   -2.4240   -3.6920 c         1 MOL      0.752046
     66 N7         -0.2180   -2.7960   -4.9230 n         1 MOL     -0.825462
     67 O11        -0.5730   -3.2630   -2.8010 o         1 MOL     -0.614486
     68 H28         2.5320   -1.7170   -2.4600 hn        1 MOL      0.314928
     69 H29         1.3660   -0.6900   -5.0120 h1        1 MOL      0.082511
     70 H30        -0.7300   -0.3460   -3.7660 hc        1 MOL      0.118156
     71 H31        -0.0280   -0.9340   -2.2400 hc        1 MOL      0.118156
     72 H32         0.1870   -2.2040   -5.6280 hn        1 MOL      0.378118
     73 H33        -0.4300   -3.7270   -5.2430 hn        1 MOL      0.378118
     74 N8          2.5900    1.0060   -2.4860 n         1 MOL     -0.126140
     75 C23         2.7950    2.3390   -1.9900 c3        1 MOL     -0.184474
     76 C24         1.5620    2.8110   -1.1940 c         1 MOL      0.480850
     77 O12         1.4730    2.6320    0.0230 o         1 MOL     -0.493544
     78 H34         3.1580    0.2700   -2.0950 hn        1 MOL      0.127451
     79 H35         2.9520    3.0100   -2.8430 h1        1 MOL      0.127442
     80 H36         3.6390    2.2830   -1.2960 h1        1 MOL      0.127442
     81 N9          0.6100    3.4400   -1.8460 n         1 MOL     -0.362491
     82 C25        -0.6590    3.7900   -1.2500 c3        1 MOL     -0.039454
     83 C26        -1.4020    2.6960   -0.3720 c         1 MOL      0.343824
     84 O13        -1.2100    1.5440   -0.7320 o         1 MOL     -0.385659
     85 C27        -0.4990    5.1870   -0.6640 c3        1 MOL     -0.200458
     86 C28        -1.6810    5.9860   -0.1080 ca        1 MOL      0.054187
     87 C29        -2.7340    6.2580   -1.0230 ca        1 MOL     -0.221327
     88 C30        -1.7610    6.3390    1.3020 ca        1 MOL     -0.221327
     89 C31        -3.8080    6.9930   -0.5520 ca        1 MOL     -0.153441
     90 C32        -2.8580    7.0520    1.7410 ca        1 MOL     -0.153441
     91 C33        -3.9180    7.3660    0.8660 ca        1 MOL      0.246561
     92 O14        -4.9440    8.1060    1.2650 oh        1 MOL     -0.487187
     93 H37         0.6890    3.6620   -2.8370 hn        1 MOL      0.306816
     94 H38        -1.2400    3.9750   -2.1500 h1        1 MOL      0.102997
     95 H39         0.0950    5.8440   -1.2980 hc        1 MOL      0.106603
     96 H40         0.1910    5.1490    0.1750 hc        1 MOL      0.106603
     97 H41        -2.7240    5.9960   -2.0690 ha        1 MOL      0.161225
     98 H42        -0.9640    6.1030    1.9910 ha        1 MOL      0.161225
     99 H43        -4.6080    7.2900   -1.2310 ha        1 MOL      0.118228
    100 H44        -2.8930    7.4020    2.7640 ha        1 MOL      0.118228
    101 H45        -4.8280    8.4300    2.1570 ho        1 MOL      0.388765
    102 N10        -2.2730    3.0790    0.5780 n         1 MOL     -0.217342
    103 C34        -3.1730    2.1110    1.2270 c3        1 MOL     -0.143677
    104 C35        -4.2890    1.7350    0.1890 c         1 MOL      0.308689
    105 O15        -4.6350    0.5410    0.0050 o         1 MOL     -0.447290
    106 C36        -3.8200    2.7560    2.5300 c3        1 MOL      0.215842
    107 C37        -2.7660    2.9000    3.7010 c3        1 MOL     -0.002340
    108 C38        -5.0350    2.0070    3.1570 c3        1 MOL     -0.565334
    109 C39        -2.4500    4.3040    4.2130 c3        1 MOL     -0.355868
    110 H46        -2.3160    4.0380    0.8810 hn        1 MOL      0.220614
    111 H47        -2.6200    1.2310    1.5530 h1        1 MOL      0.126366
    112 H48        -4.0360    3.7800    2.2400 hc        1 MOL     -0.043717
    113 H49        -1.8280    2.4540    3.3700 hc        1 MOL      0.057782
    114 H50        -3.0290    2.2670    4.5410 hc        1 MOL      0.057782
    115 H51        -4.8450    0.9600    3.3940 hc        1 MOL      0.158177
    116 H52        -5.2980    2.6270    4.0170 hc        1 MOL      0.158177
    117 H53        -5.8540    2.0710    2.4450 hc        1 MOL      0.158177
    118 H54        -1.5130    4.3210    4.7740 hc        1 MOL      0.085744
    119 H55        -2.2910    4.8930    3.3150 hc        1 MOL      0.085744
    120 H56        -3.3330    4.6710    4.7300 hc        1 MOL      0.085744
    121 N11        -4.8050    2.6670   -0.6080 n         1 MOL     -0.199579
    122 C40        -5.7190    2.4660   -1.7510 c3        1 MOL      0.254751
    123 C41        -7.0780    1.9920   -1.3600 c         1 MOL      0.094171
    124 O16        -7.7270    1.2140   -2.1150 o         1 MOL     -0.439633
    125 C42        -5.8510    3.6800   -2.5560 c3        1 MOL      0.211088
    126 O17        -4.6070    4.2780   -2.8740 oh        1 MOL     -0.623317
    127 H57        -4.5050    3.6260   -0.5120 hn        1 MOL      0.182103
    128 H58        -5.3420    1.6870   -2.4250 h1        1 MOL      0.086541
    129 H59        -6.3890    4.4330   -1.9870 h1        1 MOL     -0.009760
    130 H60        -6.3730    3.3940   -3.4690 h1        1 MOL     -0.009760
    131 H61        -4.8160    5.0470   -3.3990 ho        1 MOL      0.421723
    132 N12        -7.5880    2.3010   -0.1570 n         1 MOL     -0.069872
    133 C43        -8.6510    1.5370    0.5460 c3        1 MOL      0.143028
    134 C44        -8.4950    0.0030    0.5180 c         1 MOL      0.448554
    135 O18        -9.4940   -0.6910    0.5450 o         1 MOL     -0.516042
    136 C45        -9.9870    1.9560   -0.0660 c3        1 MOL     -0.457891
    137 H62        -7.2100    3.0930    0.3360 hn        1 MOL      0.156079
    138 H63        -8.5710    1.9470    1.5560 h1        1 MOL      0.034650
    139 H64        -9.9560    3.0290   -0.2170 hc        1 MOL      0.130984
    140 H65       -10.0740    1.5750   -1.0870 hc        1 MOL      0.130984
    141 H66       -10.8540    1.5620    0.4620 hc        1 MOL      0.130984
    142 N13        -7.3060   -0.5790    0.4100 n         1 MOL     -0.451578
    143 C46        -7.0900   -2.0560    0.1520 c3        1 MOL      0.484871
    144 C47        -6.2970   -2.8500    1.2470 c         1 MOL      0.357009
    145 O19        -5.6080   -2.2940    2.1230 o         1 MOL     -0.447177
    146 C48        -6.5000   -2.1760   -1.2410 c3        1 MOL     -0.210812
    147 H67        -6.6040    0.1340    0.5680 hn        1 MOL      0.149221
    148 H68        -8.1010   -2.4390    0.1810 h1        1 MOL     -0.036222
    149 H69        -7.0680   -1.5790   -1.9550 hc        1 MOL      0.057575
    150 H70        -5.5000   -1.7360   -1.1680 hc        1 MOL      0.057575
    151 H71        -6.3560   -3.2140   -1.5370 hc        1 MOL      0.057575
    152 N14        -6.4330   -4.1630    1.4010 n         1 MOL     -0.450401
    153 C49        -5.6250   -4.9770    2.3260 c3        1 MOL      0.228077
    154 C50        -5.8570   -4.6220    3.7820 c         1 MOL      0.395692
    155 O20        -4.9500   -4.6670    4.6510 o         1 MOL     -0.512677
    156 C51        -4.2150   -5.1490    1.8520 c3        1 MOL     -0.189105
    157 C52        -3.9680   -5.8380    0.5040 c3        1 MOL      0.211436
    158 C53        -2.5170   -5.6750   -0.0690 c         1 MOL      0.588845
    159 O21        -2.3110   -5.3540   -1.2670 o         1 MOL     -0.717466
    160 O22        -1.5960   -5.9370    0.6930 o         1 MOL     -0.717466
    161 H72        -7.0120   -4.6270    0.7100 hn        1 MOL      0.241673
    162 H73        -6.0650   -5.9770    2.3810 h1        1 MOL     -0.003425
    163 H74        -3.7400   -5.8160    2.5750 hc        1 MOL      0.065023
    164 H75        -3.7910   -4.1510    1.9310 hc        1 MOL      0.065023
    165 H76        -4.5880   -5.3960   -0.2740 hc        1 MOL     -0.069266
    166 H77        -4.2270   -6.8880    0.3840 hc        1 MOL     -0.069266
    167 N15        -7.0410   -4.1660    4.1280 n         1 MOL     -0.308866
    168 C54        -7.3680   -3.2420    5.2110 c3        1 MOL     -0.081542
    169 H78        -6.4480   -2.8690    5.6590 h1        1 MOL      0.075257
    170 H79        -7.9430   -2.4050    4.8150 h1        1 MOL      0.075257
    171 H80        -7.9550   -3.7620    5.9680 h1        1 MOL      0.075257
    172 H81        -7.7500   -4.2510    3.4080 hn        1 MOL      0.217627
    173 Ca1         0.4000   -4.8770   -0.8380 Ca        1 MOL      1.724461
    174 O23        -0.7990   -2.6790    0.3310 oh        1 MOL     -0.787186
    175 H82        -0.2780   -1.9110    0.5770 ho        1 MOL      0.398296
    176 H83        -1.6940   -2.4570    0.5960 ho        1 MOL      0.398296
    177 O24         2.6600   -5.5820   -1.9190 oh        1 MOL     -0.787186
    178 H84         3.4670   -5.8110   -1.4580 ho        1 MOL      0.398296
    179 H85         2.6400   -6.1670   -2.6790 ho        1 MOL      0.398296
    180 O25         0.1900   -6.5780   -3.0020 oh        1 MOL     -0.787186
    181 H86         0.0270   -7.5180   -2.9750 ho        1 MOL      0.398296
    182 H87         0.0470   -6.3310   -3.9100 ho        1 MOL      0.398296
    183 O26         1.1150   -7.0810    0.7930 oh        1 MOL     -0.787186
    184 H88         1.9500   -7.4280    0.4670 ho        1 MOL      0.398296
    185 H89         1.2330   -7.0250    1.7360 ho        1 MOL      0.398296
@<TRIPOS>BOND
     1    1    2 1   
     2    1    4 1   
     3    1    5 1   
     4    1    6 1   
     5    2    3 2   
     6    2    7 1   
     7    7    8 1   
     8    7   15 1   
     9    8    9 1   
    10    8   11 1   
    11    8   16 1   
    12    9   10 2   
    13    9   19 1   
    14   11   12 1   
    15   11   17 1   
    16   11   18 1   
    17   12   13 1   
    18   12   14 1   
    19   19   20 1   
    20   19   28 1   
    21   20   21 1   
    22   20   23 1   
    23   20   29 1   
    24   21   22 2   
    25   21   41 1   
    26   23   24 1   
    27   23   30 1   
    28   23   31 1   
    29   24   25 1   
    30   24   32 1   
    31   24   33 1   
    32   25   26 1   
    33   25   34 1   
    34   25   35 1   
    35   26   27 1   
    36   26   36 1   
    37   26   37 1   
    38   27   38 1   
    39   27   39 1   
    40   27   40 1   
    41   41   42 1   
    42   41   49 1   
    43   42   43 1   
    44   42   45 1   
    45   42   50 1   
    46   43   44 2   
    47   43   53 1   
    48   45   46 1   
    49   45   51 1   
    50   45   52 1   
    51   46   47 1   
    52   46   48 1   
    53   53   54 1   
    54   53   57 1   
    55   54   55 1   
    56   54   58 1   
    57   54   59 1   
    58   55   56 2   
    59   55   60 1   
    60   60   61 1   
    61   60   68 1   
    62   61   62 1   
    63   61   64 1   
    64   61   69 1   
    65   62   63 2   
    66   62   74 1   
    67   64   65 1   
    68   64   70 1   
    69   64   71 1   
    70   65   66 1   
    71   65   67 2   
    72   66   72 1   
    73   66   73 1   
    74   74   75 1   
    75   74   78 1   
    76   75   76 1   
    77   75   79 1   
    78   75   80 1   
    79   76   77 2   
    80   76   81 1   
    81   81   82 1   
    82   81   93 1   
    83   82   83 1   
    84   82   85 1   
    85   82   94 1   
    86   83   84 2   
    87   83  102 1   
    88   85   86 1   
    89   85   95 1   
    90   85   96 1   
    91   86   87 ar  
    92   86   88 ar  
    93   87   89 ar  
    94   87   97 1   
    95   88   90 ar  
    96   88   98 1   
    97   89   91 ar  
    98   89   99 1   
    99   90   91 ar  
   100   90  100 1   
   101   91   92 1   
   102   92  101 1   
   103  102  103 1   
   104  102  110 1   
   105  103  104 1   
   106  103  106 1   
   107  103  111 1   
   108  104  105 2   
   109  104  121 1   
   110  106  107 1   
   111  106  108 1   
   112  106  112 1   
   113  107  109 1   
   114  107  113 1   
   115  107  114 1   
   116  108  115 1   
   117  108  116 1   
   118  108  117 1   
   119  109  118 1   
   120  109  119 1   
   121  109  120 1   
   122  121  122 1   
   123  121  127 1   
   124  122  123 1   
   125  122  125 1   
   126  122  128 1   
   127  123  124 2   
   128  123  132 1   
   129  125  126 1   
   130  125  129 1   
   131  125  130 1   
   132  126  131 1   
   133  132  133 1   
   134  132  137 1   
   135  133  134 1   
   136  133  136 1   
   137  133  138 1   
   138  134  135 2   
   139  134  142 1   
   140  136  139 1   
   141  136  140 1   
   142  136  141 1   
   143  142  143 1   
   144  142  147 1   
   145  143  144 1   
   146  143  146 1   
   147  143  148 1   
   148  144  145 2   
   149  144  152 1   
   150  146  149 1   
   151  146  150 1   
   152  146  151 1   
   153  152  153 1   
   154  152  161 1   
   155  153  154 1   
   156  153  156 1   
   157  153  162 1   
   158  154  155 2   
   159  154  167 1   
   160  156  157 1   
   161  156  163 1   
   162  156  164 1   
   163  157  158 1   
   164  157  165 1   
   165  157  166 1   
   166  158  159 1   
   167  158  160 1   
   168  167  168 1   
   169  167  172 1   
   170  168  169 1   
   171  168  170 1   
   172  168  171 1   
   173  174  175 1   
   174  174  176 1   
   175  177  178 1   
   176  177  179 1   
   177  180  181 1   
   178  180  182 1   
   179  183  184 1   
   180  183  185 1   
@<TRIPOS>SUBSTRUCTURE
     1 MOL         1 TEMP              0 ****  ****    0 ROOT
