@<TRIPOS>MOLECULE
MOL
  192   187     1     0     0
SMALL
resp


@<TRIPOS>ATOM
      1 C1          6.4720   -3.6140   -2.7870 c3        1 MOL     -0.323185
      2 C2          5.2440   -3.4180   -1.7750 c         1 MOL      0.490620
      3 O1          4.6440   -2.3610   -1.8410 o         1 MOL     -0.388622
      4 H1          6.0910   -3.7450   -3.8000 hc        1 MOL      0.053834
      5 H2          7.1160   -2.7350   -2.7520 hc        1 MOL      0.053834
      6 H3          7.0440   -4.4960   -2.4980 hc        1 MOL      0.053834
      7 N1          5.0470   -4.3760   -0.8620 n         1 MOL     -0.627103
      8 C3          4.1110   -4.4430    0.2240 c3        1 MOL     -0.184766
      9 C4          2.5960   -4.5080   -0.2170 c         1 MOL      0.806411
     10 O2          1.7330   -3.8910    0.4200 o         1 MOL     -0.611455
     11 C5          4.3890   -3.3150    1.2270 c3        1 MOL     -0.423297
     12 C6          5.7970   -3.2170    1.6900 c         1 MOL      0.739523
     13 O3          6.5040   -2.2120    1.4100 o         1 MOL     -0.662238
     14 O4          6.1120   -4.1290    2.4820 o         1 MOL     -0.662238
     15 H4          5.7490   -5.1010   -0.8920 hn        1 MOL      0.391839
     16 H5          4.3280   -5.3500    0.8020 h1        1 MOL      0.114198
     17 H6          3.7550   -3.3950    2.1080 hc        1 MOL      0.183694
     18 H7          4.1650   -2.3770    0.7240 hc        1 MOL      0.183694
     19 N2          2.2460   -5.2220   -1.2640 n         1 MOL     -0.621561
     20 C7          0.9460   -5.0260   -2.0490 c3        1 MOL      0.170720
     21 C8          0.1280   -6.2560   -1.5450 c         1 MOL      0.269330
     22 O5          0.3950   -7.4290   -1.9230 o         1 MOL     -0.574568
     23 C9          1.2530   -5.1020   -3.6010 c3        1 MOL      0.465974
     24 C10         2.2580   -4.0970   -4.1180 c3        1 MOL     -0.455194
     25 C11        -0.0180   -5.2520   -4.4720 c3        1 MOL     -0.359458
     26 C12         1.8500   -2.6220   -4.3720 c3        1 MOL     -0.025317
     27 H8          2.8970   -5.9580   -1.5080 hn        1 MOL      0.326240
     28 H9          0.3680   -4.1140   -1.9360 h1        1 MOL      0.142135
     29 H10         1.7200   -6.0840   -3.6870 hc        1 MOL     -0.109283
     30 H11         2.6260   -4.4440   -5.0840 hc        1 MOL      0.132809
     31 H12         3.0580   -4.0910   -3.3750 hc        1 MOL      0.132809
     32 H13        -0.6640   -6.0310   -4.0470 hc        1 MOL      0.071166
     33 H14        -0.5280   -4.2900   -4.4810 hc        1 MOL      0.071166
     34 H15         0.3840   -5.5490   -5.4360 hc        1 MOL      0.071166
     35 H16         0.9620   -2.5550   -5.0000 hc        1 MOL      0.024256
     36 H17         1.5140   -2.2610   -3.3940 hc        1 MOL      0.024256
     37 H18         2.6740   -1.9830   -4.6770 hc        1 MOL      0.024256
     38 N3         -0.8800   -6.0630   -0.7670 n         1 MOL     -0.065859
     39 C13        -1.4640   -4.8380   -0.2290 c3        1 MOL     -0.386593
     40 C14        -2.3110   -5.2180    0.9430 c         1 MOL      0.592864
     41 O6         -3.0110   -6.2090    0.8780 o         1 MOL     -0.525410
     42 C15        -2.3430   -4.1560   -1.3050 c3        1 MOL     -0.028952
     43 C16        -3.1590   -2.9820   -0.7270 c         1 MOL      0.637269
     44 O7         -4.1880   -3.1980   -0.0440 o         1 MOL     -0.613449
     45 O8         -2.7360   -1.8420   -1.0250 o         1 MOL     -0.613449
     46 H19        -1.3400   -6.9080   -0.4520 hn        1 MOL      0.222983
     47 H20        -0.7520   -4.0980    0.1440 h1        1 MOL      0.155860
     48 H21        -3.0360   -4.9080   -1.6800 hc        1 MOL      0.009661
     49 H22        -1.7450   -3.7860   -2.1390 hc        1 MOL      0.009661
     50 N4         -2.3870   -4.4400    2.0280 n         1 MOL     -0.369388
     51 C17        -3.0660   -4.7790    3.2410 c3        1 MOL     -0.253596
     52 C18        -4.4460   -4.1910    3.5260 c         1 MOL      0.782358
     53 O9         -5.0150   -4.7090    4.5110 o         1 MOL     -0.641655
     54 H23        -1.9220   -3.5450    1.9920 hn        1 MOL      0.327080
     55 H24        -2.4840   -4.3370    4.0570 h1        1 MOL      0.110376
     56 H25        -3.2200   -5.8530    3.3370 h1        1 MOL      0.110376
     57 N5         -4.9000   -3.1610    2.7800 n         1 MOL     -0.669823
     58 C19        -6.0670   -2.3250    3.2200 c3        1 MOL      0.181492
     59 C20        -7.1090   -2.1330    2.1150 c         1 MOL      0.341193
     60 O10        -8.2110   -1.7680    2.4290 o         1 MOL     -0.528056
     61 C21        -5.6210   -1.0710    3.9150 c3        1 MOL     -0.096346
     62 C22        -4.4980   -0.3910    3.1330 c         1 MOL      0.746498
     63 O11        -4.7470    0.2010    2.0850 o         1 MOL     -0.659798
     64 O12        -3.3640   -0.4680    3.4900 o         1 MOL     -0.659798
     65 H26        -4.3630   -2.8590    1.9860 hn        1 MOL      0.388632
     66 H27        -6.5980   -2.9650    3.9240 h1        1 MOL      0.064943
     67 H28        -5.1800   -1.4250    4.8440 hc        1 MOL     -0.022995
     68 H29        -6.4320   -0.3540    4.0080 hc        1 MOL     -0.022995
     69 N6         -6.7360   -2.2250    0.8150 n         1 MOL     -0.053703
     70 C23        -7.5680   -1.8560   -0.3240 c3        1 MOL     -0.520290
     71 C24        -7.8920   -0.3500   -0.3790 c         1 MOL      0.495087
     72 O13        -8.8570    0.1430   -1.0830 o         1 MOL     -0.590550
     73 H30        -5.7940   -2.5230    0.5930 hn        1 MOL      0.130328
     74 H31        -8.5330   -2.3680   -0.2680 h1        1 MOL      0.196712
     75 H32        -6.9930   -2.0760   -1.2220 h1        1 MOL      0.196712
     76 N7         -7.1300    0.4720    0.3610 n         1 MOL     -0.028380
     77 C25        -7.1800    1.9670    0.2990 c3        1 MOL      0.083943
     78 C26        -7.2130    2.6140   -1.0720 c         1 MOL      0.511892
     79 O14        -7.7980    3.6930   -1.3060 o         1 MOL     -0.551129
     80 C27        -8.1220    2.5900    1.3040 c3        1 MOL     -0.060296
     81 C28        -7.9890    2.0550    2.7710 c3        1 MOL      0.178992
     82 C29        -8.7120    2.8770    3.8810 c         1 MOL      0.541482
     83 N8         -9.3040    2.2420    4.8260 n         1 MOL     -0.737424
     84 O15        -8.5580    4.1050    3.9180 o         1 MOL     -0.583115
     85 H33        -6.3270    0.0310    0.7850 hn        1 MOL      0.104888
     86 H34        -6.2150    2.3520    0.6190 h1        1 MOL      0.086134
     87 H35        -9.1680    2.4620    1.0250 hc        1 MOL     -0.012043
     88 H36        -7.7710    3.6200    1.4360 hc        1 MOL     -0.012043
     89 H37        -6.9410    1.9630    3.0660 hc        1 MOL     -0.040197
     90 H38        -8.4600    1.0740    2.8690 hc        1 MOL     -0.040197
     91 H39        -9.4510    1.2530    4.7290 hn        1 MOL      0.344237
     92 H40        -9.6340    2.7810    5.6280 hn        1 MOL      0.344237
     93 N9         -6.5780    1.9630   -2.0800 n         1 MOL     -0.390309
     94 C30        -6.3570    2.2860   -3.4870 c3        1 MOL      0.135601
     95 C31        -4.9100    2.6450   -3.7100 c         1 MOL      0.387362
     96 O16        -4.6040    3.3720   -4.6830 o         1 MOL     -0.574597
     97 C32        -6.8110    1.1760   -4.3940 c3        1 MOL      0.321302
     98 C33        -6.2890   -0.1930   -3.9300 c3        1 MOL     -0.260205
     99 C34        -8.3350    1.1790   -4.5460 c3        1 MOL     -0.260205
    100 H41        -6.2330    1.0640   -1.7740 hn        1 MOL      0.229387
    101 H42        -6.9250    3.1430   -3.8690 h1        1 MOL      0.040388
    102 H43        -6.4310    1.3800   -5.3950 hc        1 MOL     -0.063470
    103 H44        -6.5310   -0.9630   -4.6650 hc        1 MOL      0.046549
    104 H45        -5.2220   -0.1840   -3.6740 hc        1 MOL      0.046549
    105 H46        -6.8950   -0.5290   -3.0880 hc        1 MOL      0.046549
    106 H47        -8.5530    0.5280   -5.4020 hc        1 MOL      0.046549
    107 H48        -8.8110    0.8570   -3.6240 hc        1 MOL      0.046549
    108 H49        -8.6400    2.1950   -4.8080 hc        1 MOL      0.046549
    109 N10        -3.9830    2.1020   -2.9120 n         1 MOL     -0.335907
    110 C35        -2.5460    2.0380   -3.0950 c3        1 MOL      0.433058
    111 C36        -2.0190    2.3120   -1.6600 c         1 MOL      0.286933
    112 O17        -2.7410    2.4970   -0.6610 o         1 MOL     -0.483773
    113 C37        -2.2230    0.6390   -3.6410 c3        1 MOL     -0.313238
    114 C38        -0.7900    0.1940   -3.3240 c         1 MOL      0.623084
    115 N11        -0.5900   -0.8170   -2.5090 n         1 MOL     -0.756565
    116 O18         0.1500    0.8380   -3.8000 o         1 MOL     -0.609208
    117 H50        -4.3160    1.6710   -2.0600 hn        1 MOL      0.146055
    118 H51        -2.1300    2.7990   -3.7530 h1        1 MOL     -0.008953
    119 H52        -2.4360    0.5080   -4.7060 hc        1 MOL      0.079779
    120 H53        -2.8670   -0.0750   -3.1300 hc        1 MOL      0.079779
    121 H54        -1.3770   -1.2380   -2.0280 hn        1 MOL      0.351093
    122 H55         0.3080   -1.2440   -2.3430 hn        1 MOL      0.351093
    123 N12        -0.7040    2.4490   -1.5180 n         1 MOL     -0.261494
    124 C39        -0.0320    2.9250   -0.2970 c3        1 MOL      0.159918
    125 C40         1.1790    3.6830   -0.6520 c         1 MOL      0.285709
    126 O19         1.6880    3.4930   -1.7590 o         1 MOL     -0.522457
    127 C41         0.2040    1.6440    0.4980 c3        1 MOL     -0.171980
    128 C42         0.7040    1.9650    1.9410 ca        1 MOL      0.099770
    129 C43         0.0430    2.8720    2.7760 ca        1 MOL     -0.168715
    130 C44         1.8880    1.3600    2.3530 ca        1 MOL     -0.168715
    131 C45         0.4180    2.9500    4.1210 ca        1 MOL     -0.234713
    132 C46         2.3860    1.6140    3.6580 ca        1 MOL     -0.234713
    133 C47         1.6070    2.3380    4.5340 ca        1 MOL      0.332036
    134 O20         2.1310    2.5310    5.7880 oh        1 MOL     -0.528987
    135 H56        -0.0550    2.3580   -2.2910 hn        1 MOL      0.221801
    136 H57        -0.6690    3.4790    0.3940 h1        1 MOL      0.034699
    137 H58         0.9420    1.0740   -0.0640 hc        1 MOL      0.088951
    138 H59        -0.6980    1.0660    0.6440 hc        1 MOL      0.088951
    139 H60        -0.8180    3.4350    2.4310 ha        1 MOL      0.147627
    140 H61         2.3870    0.7190    1.6490 ha        1 MOL      0.147627
    141 H62         0.0330    3.5510    4.9230 ha        1 MOL      0.130226
    142 H63         3.2650    1.0600    3.9470 ha        1 MOL      0.130226
    143 H64         1.7350    3.1850    6.3750 ho        1 MOL      0.365376
    144 N13         1.7500    4.4990    0.2200 n         1 MOL     -0.199638
    145 C48         3.1390    5.0000    0.1030 c3        1 MOL      0.125752
    146 C49         4.1330    4.2270    1.0210 c         1 MOL      0.341712
    147 O21         4.3920    4.6110    2.1940 o         1 MOL     -0.542410
    148 C50         3.2280    6.4900    0.3670 c3        1 MOL      0.020074
    149 C51         2.3410    7.3560   -0.5380 c3        1 MOL     -0.054794
    150 C52         2.7570    8.7980   -0.4030 c         1 MOL      0.654780
    151 O22         3.5210    9.2220   -1.3230 o         1 MOL     -0.657862
    152 O23         2.3280    9.4780    0.5540 o         1 MOL     -0.657862
    153 H65         1.2990    4.7110    1.0970 hn        1 MOL      0.200765
    154 H66         3.4360    4.8340   -0.9330 h1        1 MOL      0.106653
    155 H67         4.2760    6.7820    0.3090 hc        1 MOL      0.005688
    156 H68         2.8600    6.6740    1.3770 hc        1 MOL      0.005688
    157 H69         1.2750    7.1590   -0.4160 hc        1 MOL     -0.022062
    158 H70         2.4710    6.9670   -1.5460 hc        1 MOL     -0.022062
    159 N14         4.7960    3.1560    0.5610 n         1 MOL      0.081705
    160 C53         4.6380    2.4570   -0.6770 c3        1 MOL     -0.767115
    161 C54         5.1410    3.2610   -1.9000 c         1 MOL      0.468825
    162 O24         5.9140    4.1790   -1.7860 o         1 MOL     -0.499885
    163 C55         5.3770    1.0800   -0.5350 c3        1 MOL     -0.048622
    164 C56         6.8930    1.0770   -0.3260 c3        1 MOL      0.069444
    165 C57         7.4140    1.6300    1.0020 c         1 MOL      0.500097
    166 O25         7.7220    0.7110    1.8300 o         1 MOL     -0.551569
    167 O26         7.7600    2.8160    1.1630 o         1 MOL     -0.551569
    168 H71         5.6030    2.9430    1.1460 hn        1 MOL      0.150332
    169 H72         3.5830    2.2300   -0.8050 h1        1 MOL      0.337011
    170 H73         5.2170    0.5040   -1.4460 hc        1 MOL      0.007909
    171 H74         4.9090    0.5040    0.2760 hc        1 MOL      0.007909
    172 H75         7.3590    1.7570   -1.0350 hc        1 MOL      0.010947
    173 H76         7.2750    0.0610   -0.4490 hc        1 MOL      0.010947
    174 N15         4.7230    2.8400   -3.0690 n         1 MOL     -0.131941
    175 C58         4.9870    3.4710   -4.3900 c3        1 MOL     -0.103206
    176 H77         4.1340    3.3040   -5.0490 h1        1 MOL      0.060602
    177 H78         5.1390    4.5420   -4.2580 h1        1 MOL      0.060602
    178 H79         5.8790    3.0280   -4.8330 h1        1 MOL      0.060602
    179 H80         4.1370    2.0120   -3.0270 hn        1 MOL      0.235944
    180 Ca1         9.0000   -1.4270    1.1960 Ca        1 MOL      1.482603
    181 O27         8.9270   -1.1150    3.9430 oh        1 MOL     -0.858643
    182 H81         8.3130   -0.4710    4.2970 ho        1 MOL      0.391477
    183 H82         9.5920   -1.2120    4.6170 ho        1 MOL      0.391477
    184 O28        10.8730    0.6040    2.0160 oh        1 MOL     -0.858643
    185 H83        11.8100    0.5500    2.1990 ho        1 MOL      0.391477
    186 H84        10.5000    0.9620    2.8180 ho        1 MOL      0.391477
    187 O29         8.9630   -3.9240    1.9830 oh        1 MOL     -0.858643
    188 H85         9.4330   -4.7220    2.2470 ho        1 MOL      0.391477
    189 H86         8.0620   -4.2040    1.8620 ho        1 MOL      0.391477
    190 O30         9.5610   -0.3210   -1.0800 oh        1 MOL     -0.858643
    191 H87         9.0420   -0.1970   -1.8780 ho        1 MOL      0.391477
    192 H88        10.3600   -0.7580   -1.3830 ho        1 MOL      0.391477
@<TRIPOS>BOND
     1    1    2 1   
     2    1    4 1   
     3    1    5 1   
     4    1    6 1   
     5    2    3 2   
     6    2    7 1   
     7    7    8 1   
     8    7   15 1   
     9    8    9 1   
    10    8   11 1   
    11    8   16 1   
    12    9   10 2   
    13    9   19 1   
    14   11   12 1   
    15   11   17 1   
    16   11   18 1   
    17   12   13 1   
    18   12   14 1   
    19   19   20 1   
    20   19   27 1   
    21   20   21 1   
    22   20   23 1   
    23   20   28 1   
    24   21   22 2   
    25   21   38 1   
    26   23   24 1   
    27   23   25 1   
    28   23   29 1   
    29   24   26 1   
    30   24   30 1   
    31   24   31 1   
    32   25   32 1   
    33   25   33 1   
    34   25   34 1   
    35   26   35 1   
    36   26   36 1   
    37   26   37 1   
    38   38   39 1   
    39   38   46 1   
    40   39   40 1   
    41   39   42 1   
    42   39   47 1   
    43   40   41 2   
    44   40   50 1   
    45   42   43 1   
    46   42   48 1   
    47   42   49 1   
    48   43   44 1   
    49   43   45 1   
    50   50   51 1   
    51   50   54 1   
    52   51   52 1   
    53   51   55 1   
    54   51   56 1   
    55   52   53 2   
    56   52   57 1   
    57   57   58 1   
    58   57   65 1   
    59   58   59 1   
    60   58   61 1   
    61   58   66 1   
    62   59   60 2   
    63   59   69 1   
    64   61   62 1   
    65   61   67 1   
    66   61   68 1   
    67   62   63 1   
    68   62   64 1   
    69   69   70 1   
    70   69   73 1   
    71   70   71 1   
    72   70   74 1   
    73   70   75 1   
    74   71   72 2   
    75   71   76 1   
    76   76   77 1   
    77   76   85 1   
    78   77   78 1   
    79   77   80 1   
    80   77   86 1   
    81   78   79 2   
    82   78   93 1   
    83   80   81 1   
    84   80   87 1   
    85   80   88 1   
    86   81   82 1   
    87   81   89 1   
    88   81   90 1   
    89   82   83 1   
    90   82   84 2   
    91   83   91 1   
    92   83   92 1   
    93   93   94 1   
    94   93  100 1   
    95   94   95 1   
    96   94   97 1   
    97   94  101 1   
    98   95   96 2   
    99   95  109 1   
   100   97   98 1   
   101   97   99 1   
   102   97  102 1   
   103   98  103 1   
   104   98  104 1   
   105   98  105 1   
   106   99  106 1   
   107   99  107 1   
   108   99  108 1   
   109  109  110 1   
   110  109  117 1   
   111  110  111 1   
   112  110  113 1   
   113  110  118 1   
   114  111  112 2   
   115  111  123 1   
   116  113  114 1   
   117  113  119 1   
   118  113  120 1   
   119  114  115 1   
   120  114  116 2   
   121  115  121 1   
   122  115  122 1   
   123  123  124 1   
   124  123  135 1   
   125  124  125 1   
   126  124  127 1   
   127  124  136 1   
   128  125  126 2   
   129  125  144 1   
   130  127  128 1   
   131  127  137 1   
   132  127  138 1   
   133  128  129 ar  
   134  128  130 ar  
   135  129  131 ar  
   136  129  139 1   
   137  130  132 ar  
   138  130  140 1   
   139  131  133 ar  
   140  131  141 1   
   141  132  133 ar  
   142  132  142 1   
   143  133  134 1   
   144  134  143 1   
   145  144  145 1   
   146  144  153 1   
   147  145  146 1   
   148  145  148 1   
   149  145  154 1   
   150  146  147 2   
   151  146  159 1   
   152  148  149 1   
   153  148  155 1   
   154  148  156 1   
   155  149  150 1   
   156  149  157 1   
   157  149  158 1   
   158  150  151 1   
   159  150  152 1   
   160  159  160 1   
   161  159  168 1   
   162  160  161 1   
   163  160  163 1   
   164  160  169 1   
   165  161  162 2   
   166  161  174 1   
   167  163  164 1   
   168  163  170 1   
   169  163  171 1   
   170  164  165 1   
   171  164  172 1   
   172  164  173 1   
   173  165  166 1   
   174  165  167 1   
   175  174  175 1   
   176  174  179 1   
   177  175  176 1   
   178  175  177 1   
   179  175  178 1   
   180  181  182 1   
   181  181  183 1   
   182  184  185 1   
   183  184  186 1   
   184  187  188 1   
   185  187  189 1   
   186  190  191 1   
   187  190  192 1   
@<TRIPOS>SUBSTRUCTURE
     1 MOL         1 TEMP              0 ****  ****    0 ROOT
