@<TRIPOS>MOLECULE
MOL
  178   175     1     0     0
SMALL
resp


@<TRIPOS>ATOM
      1 C1          2.7590   -2.2250    4.2660 c3        1 MOL     -0.311212
      2 C2          3.8450   -1.3790    3.6220 c         1 MOL      0.593893
      3 O1          3.8350   -1.1360    2.4200 o         1 MOL     -0.531289
      4 H1          2.8340   -2.1480    5.3510 hc        1 MOL      0.078865
      5 H2          1.7810   -1.8700    3.9450 hc        1 MOL      0.078865
      6 H3          2.8830   -3.2660    3.9680 hc        1 MOL      0.078865
      7 N1          4.9000   -0.9990    4.3320 n         1 MOL     -0.433118
      8 C3          6.0330   -0.1690    3.8810 c3        1 MOL      0.027724
      9 C4          6.7850   -0.7740    2.6680 c         1 MOL      0.533022
     10 O2          6.9620   -0.0280    1.6770 o         1 MOL     -0.501782
     11 C5          7.0290   -0.0880    5.0630 c3        1 MOL     -0.181499
     12 C6          8.1490    0.9460    4.6370 c         1 MOL      0.734853
     13 O3          7.7400    2.1040    4.4400 o         1 MOL     -0.718977
     14 O4          9.3130    0.5530    4.5490 o         1 MOL     -0.718977
     15 H4          4.8360   -1.1680    5.3310 hn        1 MOL      0.260972
     16 H5          5.6650    0.8380    3.6570 h1        1 MOL      0.097694
     17 H6          7.4390   -1.0400    5.3840 hc        1 MOL     -0.007590
     18 H7          6.5330    0.2820    5.9620 hc        1 MOL     -0.007590
     19 N2          7.1530   -2.0500    2.6330 n         1 MOL     -0.411968
     20 C7          7.8030   -2.7570    1.5780 c3        1 MOL      0.208016
     21 C8          6.9350   -2.8370    0.3150 c         1 MOL      0.397542
     22 O5          7.5280   -2.9380   -0.7760 o         1 MOL     -0.515644
     23 C9          9.2520   -2.3530    1.4170 c3        1 MOL     -0.283504
     24 H8          6.8260   -2.6710    3.3560 hn        1 MOL      0.224512
     25 H9          7.8300   -3.7900    1.9210 h1        1 MOL      0.052176
     26 H10         9.8250   -3.0530    0.8190 hc        1 MOL      0.078959
     27 H11         9.3260   -1.3590    0.9790 hc        1 MOL      0.078959
     28 H12         9.7400   -2.4710    2.3880 hc        1 MOL      0.078959
     29 N3          5.6040   -2.8830    0.3650 n         1 MOL     -0.599847
     30 C10         4.7710   -3.0080   -0.8660 c3        1 MOL      0.561909
     31 C11         4.8390   -1.8530   -1.8910 c         1 MOL      0.061933
     32 O6          4.5200   -2.0970   -3.0580 o         1 MOL     -0.426155
     33 C12         5.0120   -4.3720   -1.5330 c3        1 MOL     -0.379651
     34 C13         3.8880   -4.8180   -2.5030 c         1 MOL      0.742252
     35 O7          4.0810   -5.7090   -3.3520 o         1 MOL     -0.712334
     36 O8          2.6810   -4.4450   -2.3330 o         1 MOL     -0.712334
     37 H13         5.1360   -2.5850    1.2180 hn        1 MOL      0.300950
     38 H14         3.7340   -3.0130   -0.5440 h1        1 MOL     -0.038230
     39 H15         5.0290   -5.1570   -0.7790 hc        1 MOL      0.083479
     40 H16         5.9730   -4.4370   -2.0450 hc        1 MOL      0.083479
     41 N4          5.2930   -0.6830   -1.5510 n         1 MOL      0.105995
     42 C14         5.8180    0.3920   -2.4150 c3        1 MOL     -0.159367
     43 C15         4.7130    1.2800   -3.0890 c         1 MOL      0.509097
     44 O9          5.0170    1.8580   -4.1870 o         1 MOL     -0.597528
     45 H17         5.3740   -0.4900   -0.5640 hn        1 MOL      0.118554
     46 H18         6.4530   -0.0610   -3.1860 h1        1 MOL      0.097851
     47 H19         6.4610    1.0380   -1.8150 h1        1 MOL      0.097851
     48 N5          3.4840    1.4110   -2.6240 n         1 MOL     -0.286044
     49 C16         2.4410    2.2470   -3.2590 c3        1 MOL      0.286963
     50 C17         2.3560    3.6180   -2.6550 c         1 MOL      0.388820
     51 O10         2.9180    3.9010   -1.6010 o         1 MOL     -0.491659
     52 C18         1.0880    1.4990   -3.1410 c3        1 MOL     -0.362240
     53 C19         1.0950    0.1160   -3.7890 c         1 MOL      0.778810
     54 N6          0.5730    0.0000   -4.9850 n         1 MOL     -0.806849
     55 O11         1.7640   -0.8430   -3.2900 o         1 MOL     -0.642582
     56 H20         3.3130    1.1140   -1.6750 hn        1 MOL      0.207236
     57 H21         2.6340    2.3890   -4.3200 h1        1 MOL     -0.011715
     58 H22         0.2370    2.0230   -3.5810 hc        1 MOL      0.102618
     59 H23         0.7840    1.4680   -2.0930 hc        1 MOL      0.102618
     60 H24         0.2770    0.7920   -5.5260 hn        1 MOL      0.355643
     61 H25         0.5460   -0.9330   -5.3780 hn        1 MOL      0.355643
     62 N7          1.7180    4.5090   -3.4130 n         1 MOL     -0.326730
     63 C20         1.6650    5.8710   -3.0300 c3        1 MOL     -0.258083
     64 C21         0.2980    6.3110   -2.5210 c         1 MOL      0.601203
     65 O12        -0.7990    5.7580   -2.9510 o         1 MOL     -0.543082
     66 H26         1.2880    4.1860   -4.2640 hn        1 MOL      0.284371
     67 H27         1.7540    6.3990   -3.9730 h1        1 MOL      0.135089
     68 H28         2.4280    6.0640   -2.2800 h1        1 MOL      0.135089
     69 N8          0.2690    7.2930   -1.6440 n         1 MOL     -0.466590
     70 C22        -0.8830    7.7130   -0.8340 c3        1 MOL     -0.152158
     71 C23        -1.6900    6.7260   -0.0010 c         1 MOL      0.451573
     72 O13        -2.8300    6.9470    0.2990 o         1 MOL     -0.560787
     73 C24        -0.5270    8.9590   -0.0280 c3        1 MOL      0.454792
     74 C25         0.5260    8.8910    1.0460 c3        1 MOL     -0.240389
     75 O14        -0.1500   10.0620   -0.8430 oh        1 MOL     -0.680504
     76 H29         1.1610    7.7080   -1.4040 hn        1 MOL      0.237239
     77 H30        -1.6190    8.0920   -1.5450 h1        1 MOL      0.136511
     78 H31        -1.4510    9.1750    0.4990 h1        1 MOL      0.024757
     79 H32         0.7590   10.0280   -1.1320 ho        1 MOL      0.412195
     80 H33         1.4890    9.0220    0.5430 hc        1 MOL      0.053893
     81 H34         0.5130    9.7710    1.6900 hc        1 MOL      0.053893
     82 H35         0.3740    7.9730    1.6150 hc        1 MOL      0.053893
     83 N9         -1.1070    5.6340    0.4700 n         1 MOL     -0.004990
     84 C26        -1.6390    4.5010    1.2020 c3        1 MOL     -0.107596
     85 C27        -1.5070    3.2130    0.3430 c         1 MOL      0.421801
     86 O15        -0.7730    3.1840   -0.6270 o         1 MOL     -0.464512
     87 C28        -1.0290    4.3930    2.5990 c3        1 MOL      0.014365
     88 C29         0.4360    3.8730    2.5890 c3        1 MOL     -0.266055
     89 C30        -1.1590    5.7600    3.4140 c3        1 MOL     -0.230588
     90 C31         1.1660    3.6440    3.8990 c3        1 MOL     -0.091606
     91 H36        -0.1230    5.5110    0.2790 hn        1 MOL      0.187125
     92 H37        -2.7080    4.5840    1.3770 h1        1 MOL      0.090721
     93 H38        -1.6250    3.7610    3.2620 hc        1 MOL      0.054238
     94 H39         1.0320    4.4570    1.8960 hc        1 MOL      0.134055
     95 H40         0.4160    2.8530    2.2120 hc        1 MOL      0.134055
     96 H41        -0.7510    5.4580    4.3710 hc        1 MOL      0.059394
     97 H42        -0.6000    6.5800    2.9690 hc        1 MOL      0.059394
     98 H43        -2.2040    6.0550    3.5370 hc        1 MOL      0.059394
     99 H44         0.6830    2.8690    4.4950 hc        1 MOL      0.042335
    100 H45         2.2180    3.3670    3.7880 hc        1 MOL      0.042335
    101 H46         1.1820    4.5450    4.5090 hc        1 MOL      0.042335
    102 N10        -2.2300    2.1480    0.6850 n         1 MOL     -0.426899
    103 C32        -2.0860    0.8530   -0.0350 c3        1 MOL      0.040701
    104 C33        -3.3410   -0.0230   -0.0330 c         1 MOL      0.492300
    105 O16        -3.3270   -1.2450    0.0310 o         1 MOL     -0.441094
    106 C34        -0.8000    0.1000    0.4440 c3        1 MOL     -0.056538
    107 C35        -0.3550   -1.0380   -0.4410 c         1 MOL      0.475714
    108 O17         0.4210   -1.9660   -0.0030 o         1 MOL     -0.662622
    109 O18        -0.8280   -1.0600   -1.6110 o         1 MOL     -0.662622
    110 H47        -2.8910    2.1740    1.4520 hn        1 MOL      0.246396
    111 H48        -1.8710    1.1800   -1.0580 h1        1 MOL      0.076373
    112 H49        -0.9590   -0.3630    1.4170 hc        1 MOL      0.055964
    113 H50         0.0120    0.8070    0.5990 hc        1 MOL      0.055964
    114 N11        -4.5070    0.6190   -0.0810 n         1 MOL     -0.406229
    115 C36        -5.8490    0.0490   -0.1210 c3        1 MOL      0.159828
    116 C37        -6.1870   -1.0550    0.9550 c         1 MOL      0.146518
    117 O19        -5.9820   -0.8890    2.1650 o         1 MOL     -0.432482
    118 C38        -6.8780    1.2220    0.0120 c3        1 MOL     -0.177535
    119 C39        -8.3660    0.8080   -0.0730 ca        1 MOL      0.112945
    120 C40        -8.9930    0.8170   -1.3680 ca        1 MOL     -0.240469
    121 C41        -9.0580    0.5160    1.1430 ca        1 MOL     -0.240469
    122 C42       -10.3140    0.3710   -1.3270 ca        1 MOL      0.005776
    123 C43       -10.3970    0.1650    1.0780 ca        1 MOL      0.005776
    124 C44       -11.0320    0.0900   -0.1530 ca        1 MOL     -0.232192
    125 H51        -4.4610    1.6290   -0.0910 hn        1 MOL      0.251057
    126 H52        -6.0950   -0.3160   -1.1150 h1        1 MOL      0.018725
    127 H53        -6.6050    2.0420   -0.6540 hc        1 MOL      0.080576
    128 H54        -6.7100    1.6510    0.9980 hc        1 MOL      0.080576
    129 H55        -8.5460    1.0870   -2.3170 ha        1 MOL      0.158872
    130 H56        -8.5030    0.6440    2.0610 ha        1 MOL      0.158872
    131 H57       -10.8110    0.2880   -2.2860 ha        1 MOL      0.078278
    132 H58       -11.0400    0.0380    1.9370 ha        1 MOL      0.078278
    133 H59       -12.0820   -0.1580   -0.1570 ha        1 MOL      0.128040
    134 N12        -6.7800   -2.1890    0.4570 n         1 MOL      0.051998
    135 C45        -7.1010   -3.3530    1.3400 c3        1 MOL      0.161267
    136 C46        -5.9580   -3.8290    2.1980 c         1 MOL      0.213806
    137 O20        -6.2110   -4.1320    3.4040 o         1 MOL     -0.473924
    138 C47        -7.5390   -4.4370    0.3630 c3        1 MOL      0.024199
    139 C48        -8.2370   -3.6860   -0.7380 c3        1 MOL     -0.142147
    140 C49        -7.2390   -2.5200   -0.9130 c3        1 MOL     -0.056956
    141 H60        -7.9500   -3.1670    2.0040 h1        1 MOL      0.032970
    142 H61        -6.6970   -4.9900   -0.0750 hc        1 MOL      0.015185
    143 H62        -8.1270   -5.1230    0.9660 hc        1 MOL      0.015185
    144 H63        -8.3390   -4.3370   -1.6170 hc        1 MOL      0.045199
    145 H64        -9.2070   -3.3260   -0.3920 hc        1 MOL      0.045199
    146 H65        -6.4440   -2.9730   -1.4900 h1        1 MOL      0.057219
    147 H66        -7.7330   -1.6600   -1.3780 h1        1 MOL      0.057219
    148 N13        -4.6840   -3.6770    1.7390 n         1 MOL     -0.132188
    149 C50        -3.4610   -3.9580    2.5950 c3        1 MOL     -0.213754
    150 C51        -3.2540   -2.9780    3.7850 c         1 MOL      0.442259
    151 O21        -2.9910   -3.3590    4.9150 o         1 MOL     -0.531085
    152 C52        -2.1120   -3.8620    1.7550 c3        1 MOL      0.026708
    153 C53        -2.1620   -4.7650    0.4980 c3        1 MOL     -0.062962
    154 C54        -1.2400   -4.6120   -0.6480 c         1 MOL      0.778513
    155 O22        -1.7460   -4.3730   -1.7670 o         1 MOL     -0.773501
    156 O23        -0.0050   -4.8590   -0.6760 o         1 MOL     -0.773501
    157 H67        -4.5400   -3.2340    0.8490 hn        1 MOL      0.180460
    158 H68        -3.5200   -4.9900    2.9370 h1        1 MOL      0.136873
    159 H69        -1.2830   -4.1760    2.3780 hc        1 MOL      0.056487
    160 H70        -1.9570   -2.7970    1.5440 hc        1 MOL      0.056487
    161 H71        -3.1530   -4.7310    0.0470 hc        1 MOL     -0.016991
    162 H72        -2.0220   -5.8000    0.8180 hc        1 MOL     -0.016991
    163 N14        -3.4770   -1.6630    3.5270 n         1 MOL     -0.125424
    164 C55        -3.3240   -0.6470    4.5840 c3        1 MOL     -0.213902
    165 H73        -2.9860   -1.1270    5.5020 h1        1 MOL      0.085396
    166 H74        -2.5910    0.0970    4.2710 h1        1 MOL      0.085396
    167 H75        -4.2830   -0.1600    4.7620 h1        1 MOL      0.085396
    168 H76        -3.7310   -1.4770    2.5680 hn        1 MOL      0.219140
    169 Ca1         0.4990   -3.1420   -2.6040 Ca        1 MOL      1.728668
    170 O24         1.6650   -2.9420   -4.9910 oh        1 MOL     -0.813495
    171 H77         1.8000   -3.2960   -5.8740 ho        1 MOL      0.394323
    172 H78         2.3220   -2.2590   -4.9030 ho        1 MOL      0.394323
    173 O25         0.3330   -5.5740   -3.8180 oh        1 MOL     -0.813495
    174 H79         0.9500   -6.0920   -4.3340 ho        1 MOL      0.394323
    175 H80        -0.4520   -6.1350   -3.7580 ho        1 MOL      0.394323
    176 O26        -1.3070   -2.6470   -4.6560 oh        1 MOL     -0.813495
    177 H81        -0.9550   -2.6450   -5.5430 ho        1 MOL      0.394323
    178 H82        -2.2270   -2.8940   -4.7650 ho        1 MOL      0.394323
@<TRIPOS>BOND
     1    1    2 1   
     2    1    4 1   
     3    1    5 1   
     4    1    6 1   
     5    2    3 2   
     6    2    7 1   
     7    7    8 1   
     8    7   15 1   
     9    8    9 1   
    10    8   11 1   
    11    8   16 1   
    12    9   10 2   
    13    9   19 1   
    14   11   12 1   
    15   11   17 1   
    16   11   18 1   
    17   12   13 1   
    18   12   14 1   
    19   19   20 1   
    20   19   24 1   
    21   20   21 1   
    22   20   23 1   
    23   20   25 1   
    24   21   22 2   
    25   21   29 1   
    26   23   26 1   
    27   23   27 1   
    28   23   28 1   
    29   29   30 1   
    30   29   37 1   
    31   30   31 1   
    32   30   33 1   
    33   30   38 1   
    34   31   32 2   
    35   31   41 1   
    36   33   34 1   
    37   33   39 1   
    38   33   40 1   
    39   34   35 1   
    40   34   36 1   
    41   41   42 1   
    42   41   45 1   
    43   42   43 1   
    44   42   46 1   
    45   42   47 1   
    46   43   44 2   
    47   43   48 1   
    48   48   49 1   
    49   48   56 1   
    50   49   50 1   
    51   49   52 1   
    52   49   57 1   
    53   50   51 2   
    54   50   62 1   
    55   52   53 1   
    56   52   58 1   
    57   52   59 1   
    58   53   54 1   
    59   53   55 2   
    60   54   60 1   
    61   54   61 1   
    62   62   63 1   
    63   62   66 1   
    64   63   64 1   
    65   63   67 1   
    66   63   68 1   
    67   64   65 2   
    68   64   69 1   
    69   69   70 1   
    70   69   76 1   
    71   70   71 1   
    72   70   73 1   
    73   70   77 1   
    74   71   72 2   
    75   71   83 1   
    76   73   74 1   
    77   73   75 1   
    78   73   78 1   
    79   74   80 1   
    80   74   81 1   
    81   74   82 1   
    82   75   79 1   
    83   83   84 1   
    84   83   91 1   
    85   84   85 1   
    86   84   87 1   
    87   84   92 1   
    88   85   86 2   
    89   85  102 1   
    90   87   88 1   
    91   87   89 1   
    92   87   93 1   
    93   88   90 1   
    94   88   94 1   
    95   88   95 1   
    96   89   96 1   
    97   89   97 1   
    98   89   98 1   
    99   90   99 1   
   100   90  100 1   
   101   90  101 1   
   102  102  103 1   
   103  102  110 1   
   104  103  104 1   
   105  103  106 1   
   106  103  111 1   
   107  104  105 2   
   108  104  114 1   
   109  106  107 1   
   110  106  112 1   
   111  106  113 1   
   112  107  108 1   
   113  107  109 1   
   114  114  115 1   
   115  114  125 1   
   116  115  116 1   
   117  115  118 1   
   118  115  126 1   
   119  116  117 2   
   120  116  134 1   
   121  118  119 1   
   122  118  127 1   
   123  118  128 1   
   124  119  120 ar  
   125  119  121 ar  
   126  120  122 ar  
   127  120  129 1   
   128  121  123 ar  
   129  121  130 1   
   130  122  124 ar  
   131  122  131 1   
   132  123  124 ar  
   133  123  132 1   
   134  124  133 1   
   135  134  135 1   
   136  134  140 1   
   137  135  136 1   
   138  135  138 1   
   139  135  141 1   
   140  136  137 2   
   141  136  148 1   
   142  138  139 1   
   143  138  142 1   
   144  138  143 1   
   145  139  140 1   
   146  139  144 1   
   147  139  145 1   
   148  140  146 1   
   149  140  147 1   
   150  148  149 1   
   151  148  157 1   
   152  149  150 1   
   153  149  152 1   
   154  149  158 1   
   155  150  151 2   
   156  150  163 1   
   157  152  153 1   
   158  152  159 1   
   159  152  160 1   
   160  153  154 1   
   161  153  161 1   
   162  153  162 1   
   163  154  155 1   
   164  154  156 1   
   165  163  164 1   
   166  163  168 1   
   167  164  165 1   
   168  164  166 1   
   169  164  167 1   
   170  170  171 1   
   171  170  172 1   
   172  173  174 1   
   173  173  175 1   
   174  176  177 1   
   175  176  178 1   
@<TRIPOS>SUBSTRUCTURE
     1 MOL         1 TEMP              0 ****  ****    0 ROOT
