@<TRIPOS>MOLECULE
MOL
  186   183     1     0     0
SMALL
resp


@<TRIPOS>ATOM
      1 C1          4.5480    4.0640   -3.3490 c3        1 MOL     -0.398349
      2 C2          5.4440    3.2390   -2.3860 c         1 MOL      0.680922
      3 O1          4.9690    2.9430   -1.2980 o         1 MOL     -0.541419
      4 H1          3.7610    4.5570   -2.7800 hc        1 MOL      0.094246
      5 H2          5.1540    4.8150   -3.8550 hc        1 MOL      0.094246
      6 H3          4.1000    3.3990   -4.0890 hc        1 MOL      0.094246
      7 N1          6.5930    2.6780   -2.8090 n         1 MOL     -0.576636
      8 C3          7.2880    1.4700   -2.3490 c3        1 MOL      0.280171
      9 C4          6.2570    0.3660   -2.0140 c         1 MOL      0.487709
     10 O2          5.8860    0.0400   -0.8820 o         1 MOL     -0.497337
     11 C5          8.2270    1.8110   -1.2490 c3        1 MOL     -0.495503
     12 C6          7.6810    2.7360   -0.1760 c         1 MOL      0.933210
     13 O3          6.8100    2.2950    0.5600 o         1 MOL     -0.770005
     14 O4          8.2090    3.8280    0.0390 o         1 MOL     -0.770005
     15 H4          6.7710    2.8960   -3.7790 hn        1 MOL      0.265967
     16 H5          7.7910    1.1070   -3.2490 h1        1 MOL     -0.002298
     17 H6          9.0990    2.2800   -1.7000 hc        1 MOL      0.102283
     18 H7          8.5830    0.8580   -0.8420 hc        1 MOL      0.102283
     19 N2          5.6670   -0.2190   -3.0690 n         1 MOL     -0.537246
     20 C7          4.7920   -1.4100   -3.0640 c3        1 MOL      0.125681
     21 C8          5.2910   -2.6370   -2.3170 c         1 MOL      0.375448
     22 O5          5.5820   -3.6530   -2.9950 o         1 MOL     -0.591668
     23 C9          3.3300   -0.9740   -2.8130 c3        1 MOL      0.242976
     24 C10         2.3450   -2.1130   -2.9180 c3        1 MOL      0.054261
     25 C11         2.9860    0.2190   -3.7130 c3        1 MOL     -0.275669
     26 C12         2.2160   -2.9880   -4.1460 c3        1 MOL     -0.253723
     27 H8          5.9230    0.0940   -3.9930 hn        1 MOL      0.258292
     28 H9          4.6900   -1.7480   -4.1010 h1        1 MOL      0.031991
     29 H10         3.2450   -0.5670   -1.8090 hc        1 MOL      0.023876
     30 H11         1.3570   -1.6790   -2.8080 hc        1 MOL      0.017763
     31 H12         2.5770   -2.8460   -2.1490 hc        1 MOL      0.017763
     32 H13         1.9140    0.2860   -3.9100 hc        1 MOL      0.036168
     33 H14         3.4020    1.0630   -3.1690 hc        1 MOL      0.036168
     34 H15         3.5250    0.1050   -4.6490 hc        1 MOL      0.036168
     35 H16         1.5360   -3.8210   -3.9630 hc        1 MOL      0.038271
     36 H17         1.8440   -2.3830   -4.9770 hc        1 MOL      0.038271
     37 H18         3.2110   -3.2330   -4.5210 hc        1 MOL      0.038271
     38 N3          5.2980   -2.6700   -0.9510 n         1 MOL      0.034704
     39 C13         5.8380   -3.7560   -0.0650 c3        1 MOL      0.015582
     40 C14         5.1560   -5.1170   -0.1240 c         1 MOL      0.536516
     41 O6          5.8680   -6.1240   -0.3180 o         1 MOL     -0.585556
     42 C15         6.2140   -3.3560    1.3720 c3        1 MOL      0.007248
     43 C16         6.7800   -1.8820    1.4060 c         1 MOL      0.676597
     44 O7          7.8550   -1.5710    0.8820 o         1 MOL     -0.727130
     45 O8          6.0760   -0.9920    1.9300 o         1 MOL     -0.727130
     46 H19         5.0180   -1.7550   -0.6470 hn        1 MOL      0.091665
     47 H20         6.8330   -3.9120   -0.4840 h1        1 MOL      0.039356
     48 H21         6.9730   -4.0390    1.7590 hc        1 MOL     -0.003479
     49 H22         5.3990   -3.3650    2.1000 hc        1 MOL     -0.003479
     50 N4          3.8480   -5.3160    0.0980 n         1 MOL     -0.466620
     51 C17         2.9340   -4.4490    0.7620 c3        1 MOL     -0.035147
     52 C18         2.9900   -4.2980    2.2600 c         1 MOL      0.507386
     53 O9          3.3150   -5.2640    3.0050 o         1 MOL     -0.590284
     54 H23         3.5670   -6.2800    0.0310 hn        1 MOL      0.280291
     55 H24         1.9210   -4.7940    0.5580 h1        1 MOL      0.084137
     56 H25         3.1190   -3.5070    0.2590 h1        1 MOL      0.084137
     57 N5          2.7910   -3.1740    2.8600 n         1 MOL     -0.365507
     58 C19         1.7170   -2.2540    2.5280 c3        1 MOL      0.043560
     59 C20         2.0790   -1.5230    1.2160 c         1 MOL      0.245852
     60 O10         3.2190   -1.3030    0.8900 o         1 MOL     -0.663849
     61 C21         1.5320   -1.2770    3.7240 c3        1 MOL     -0.219593
     62 C22         2.8300   -0.7460    4.3040 c         1 MOL      0.964343
     63 O11         3.5140   -0.0250    3.5840 o         1 MOL     -0.759227
     64 O12         3.0860   -0.9360    5.4880 o         1 MOL     -0.759227
     65 H26         3.1120   -3.1690    3.8180 hn        1 MOL      0.265264
     66 H27         0.8190   -2.8630    2.4150 h1        1 MOL      0.051547
     67 H28         1.0730   -1.9330    4.4660 hc        1 MOL      0.034745
     68 H29         0.9560   -0.4410    3.3180 hc        1 MOL      0.034745
     69 N6          1.0700   -0.9750    0.6050 n         1 MOL      0.012154
     70 C23        -0.3410   -1.2210    0.8200 c3        1 MOL     -0.187826
     71 C24        -0.8800   -2.5310    0.1080 c         1 MOL      0.525281
     72 O13        -0.1500   -3.2680   -0.5790 o         1 MOL     -0.526358
     73 H30         1.3450   -0.2970   -0.0920 hn        1 MOL      0.109888
     74 H31        -0.8720   -0.3810    0.3690 h1        1 MOL      0.113231
     75 H32        -0.5840   -1.3710    1.8730 h1        1 MOL      0.113231
     76 N7         -2.2000   -2.7200    0.2390 n         1 MOL     -0.340549
     77 C25        -2.9710   -3.9580   -0.2050 c3        1 MOL     -0.057599
     78 C26        -3.7360   -3.6600   -1.4850 c         1 MOL      0.450833
     79 O14        -4.2940   -4.5530   -2.1390 o         1 MOL     -0.553686
     80 C27        -3.7590   -4.5900    0.9680 c3        1 MOL     -0.101596
     81 C28        -4.7730   -3.7390    1.7310 c3        1 MOL     -0.400627
     82 C29        -5.9370   -3.2620    0.9600 c         1 MOL      0.543151
     83 N8         -6.7570   -4.1780    0.6300 n         1 MOL     -0.704532
     84 O15        -6.1090   -2.0550    0.7280 o         1 MOL     -0.511370
     85 H33        -2.7560   -2.1140    0.8240 hn        1 MOL      0.225575
     86 H34        -2.2240   -4.6400   -0.6000 h1        1 MOL      0.125497
     87 H35        -3.0700   -4.9900    1.7120 hc        1 MOL      0.074583
     88 H36        -4.3120   -5.4690    0.6470 hc        1 MOL      0.074583
     89 H37        -4.2510   -2.8800    2.1430 hc        1 MOL      0.159984
     90 H38        -5.1950   -4.3200    2.5480 hc        1 MOL      0.159984
     91 H39        -6.5630   -5.1140    0.9740 hn        1 MOL      0.351696
     92 H40        -7.4820   -4.0440   -0.0640 hn        1 MOL      0.351696
     93 N9         -3.6840   -2.4360   -1.9550 n         1 MOL     -0.057272
     94 C30        -4.2200   -1.9680   -3.2420 c3        1 MOL     -0.070283
     95 C31        -5.3960   -0.8970   -3.1850 c         1 MOL      0.398399
     96 O16        -5.7430   -0.3640   -4.2860 o         1 MOL     -0.522721
     97 C32        -3.0830   -1.6060   -4.2200 c3        1 MOL      0.025915
     98 C33        -1.9670   -2.5870   -4.3790 c3        1 MOL     -0.128243
     99 C34        -2.4610   -0.2920   -3.8950 c3        1 MOL     -0.128243
    100 H41        -3.1230   -1.7540   -1.4580 hn        1 MOL      0.141603
    101 H42        -4.7110   -2.8740   -3.5990 h1        1 MOL      0.095390
    102 H43        -3.5500   -1.4100   -5.1810 hc        1 MOL      0.041776
    103 H44        -1.2570   -2.3770   -5.1780 hc        1 MOL      0.039811
    104 H45        -1.4050   -2.6870   -3.4570 hc        1 MOL      0.039811
    105 H46        -2.3040   -3.5590   -4.7190 hc        1 MOL      0.039811
    106 H47        -2.0660   -0.3240   -2.8830 hc        1 MOL      0.039811
    107 H48        -1.7200   -0.0580   -4.6580 hc        1 MOL      0.039811
    108 H49        -3.1650    0.5350   -3.9960 hc        1 MOL      0.039811
    109 N10        -5.9480   -0.6970   -1.9320 n         1 MOL     -0.278393
    110 C35        -7.2370    0.0290   -1.7480 c3        1 MOL      0.213969
    111 C36        -7.1170    1.2890   -0.8770 c         1 MOL      0.531367
    112 O17        -8.0990    1.9790   -0.7970 o         1 MOL     -0.572015
    113 C37        -8.4000   -0.9140   -1.4740 c3        1 MOL     -0.314096
    114 C38        -8.3810   -2.2480   -2.2240 c         1 MOL      0.631119
    115 N11        -8.7130   -2.2570   -3.5000 n         1 MOL     -0.811026
    116 O18        -7.9560   -3.2590   -1.7570 o         1 MOL     -0.502037
    117 H50        -5.6020   -1.2010   -1.1280 hn        1 MOL      0.215120
    118 H51        -7.4760    0.4430   -2.7310 h1        1 MOL      0.010660
    119 H52        -9.3130   -0.4070   -1.7580 hc        1 MOL      0.085960
    120 H53        -8.3060   -1.2230   -0.4320 hc        1 MOL      0.085960
    121 H54        -8.8400   -1.3370   -3.9180 hn        1 MOL      0.380577
    122 H55        -8.6330   -3.0790   -4.0720 hn        1 MOL      0.380577
    123 N12        -6.0060    1.6640   -0.3010 n         1 MOL     -0.370577
    124 C39        -5.8190    2.8050    0.6200 c3        1 MOL      0.317181
    125 C40        -4.2840    3.0290    0.8190 c         1 MOL      0.313673
    126 O19        -3.3970    2.2640    0.4370 o         1 MOL     -0.417806
    127 C41        -6.5020    2.5610    2.0190 c3        1 MOL     -0.084408
    128 C42        -6.1490    1.2330    2.6930 ca        1 MOL      0.144223
    129 C43        -7.1440    0.2210    2.8760 ca        1 MOL     -0.295004
    130 C44        -4.8610    1.1090    3.3380 ca        1 MOL     -0.295004
    131 C45        -6.8060   -0.8560    3.6560 ca        1 MOL     -0.030540
    132 C46        -4.5520    0.0220    4.1390 ca        1 MOL     -0.030540
    133 C47        -5.5560   -1.0110    4.2950 ca        1 MOL      0.088336
    134 O20        -5.3060   -2.0640    5.0700 oh        1 MOL     -0.400952
    135 H56        -5.1660    1.1890   -0.5710 hn        1 MOL      0.108231
    136 H57        -6.2440    3.7010    0.1780 h1        1 MOL     -0.024678
    137 H58        -7.5670    2.5810    1.7950 hc        1 MOL      0.017476
    138 H59        -6.2750    3.4480    2.6170 hc        1 MOL      0.017476
    139 H60        -8.1450    0.4060    2.5220 ha        1 MOL      0.138254
    140 H61        -4.1870    1.9490    3.2430 ha        1 MOL      0.138254
    141 H62        -7.5570   -1.6210    3.8160 ha        1 MOL      0.099303
    142 H63        -3.5470   -0.0660    4.5260 ha        1 MOL      0.099303
    143 H64        -5.9340   -2.7820    4.9800 ho        1 MOL      0.314757
    144 N13        -4.0560    4.1620    1.4900 n         1 MOL     -0.417169
    145 C48        -2.7000    4.5940    1.7230 c3        1 MOL      0.178550
    146 C49        -1.8640    4.9870    0.4450 c         1 MOL      0.404037
    147 O21        -1.3380    6.0570    0.3560 o         1 MOL     -0.503029
    148 C50        -1.9260    3.6660    2.7690 c3        1 MOL      0.098767
    149 C51        -0.5980    4.2030    3.2740 c3        1 MOL     -0.619835
    150 C52        -0.2670    3.3270    4.5160 c         1 MOL      0.913255
    151 O22         0.5650    2.4030    4.4440 o         1 MOL     -0.744569
    152 O23        -0.8710    3.6180    5.5910 o         1 MOL     -0.744569
    153 H65        -4.8580    4.7050    1.7890 hn        1 MOL      0.277401
    154 H66        -2.7570    5.5310    2.2900 h1        1 MOL      0.019656
    155 H67        -1.8430    2.6320    2.4220 hc        1 MOL      0.033744
    156 H68        -2.5970    3.6950    3.6350 hc        1 MOL      0.033744
    157 H69        -0.6410    5.2450    3.5990 hc        1 MOL      0.143617
    158 H70         0.0820    4.1560    2.4220 hc        1 MOL      0.143617
    159 N14        -1.6790    4.1120   -0.5580 n         1 MOL     -0.737748
    160 C53        -0.5980    4.3190   -1.6150 c3        1 MOL     -0.028679
    161 C54        -0.9320    5.2910   -2.7490 c         1 MOL      0.607157
    162 O24        -0.0790    5.5160   -3.5780 o         1 MOL     -0.547190
    163 C55        -0.0840    3.0040   -2.0750 c3        1 MOL     -0.271594
    164 C56         0.3680    2.1000   -0.8760 c3        1 MOL      0.855392
    165 C57         1.6910    2.5110   -0.2430 c         1 MOL      0.556958
    166 O25         1.8320    3.6380    0.3480 o         1 MOL     -0.649556
    167 O26         2.5930    1.5880   -0.2040 o         1 MOL     -0.649556
    168 H71        -2.0700    3.1850   -0.5180 hn        1 MOL      0.405987
    169 H72         0.1850    4.8310   -1.0680 h1        1 MOL      0.198863
    170 H73         0.8000    3.3200   -2.6320 hc        1 MOL      0.036296
    171 H74        -0.9070    2.5270   -2.5960 hc        1 MOL      0.036296
    172 H75         0.4520    1.1120   -1.3350 hc        1 MOL     -0.274120
    173 H76        -0.4050    2.0150   -0.1130 hc        1 MOL     -0.274120
    174 N15        -2.1220    5.9650   -2.6550 n         1 MOL     -0.361527
    175 C58        -2.6270    7.0210   -3.6080 c3        1 MOL     -0.173823
    176 H77        -3.4700    7.5440   -3.1560 h1        1 MOL      0.080484
    177 H78        -1.8290    7.7340   -3.8180 h1        1 MOL      0.080484
    178 H79        -2.9480    6.5500   -4.5370 h1        1 MOL      0.080484
    179 H80        -2.6900    5.9110   -1.8160 hn        1 MOL      0.303892
    180 Ca1         4.6140    0.9590    1.2100 Ca        1 MOL      1.765632
    181 O27         2.7630    2.3620    2.6810 oh        1 MOL     -0.820410
    182 H81         2.4570    2.9700    1.9940 ho        1 MOL      0.387060
    183 H82         2.0700    2.3970    3.3400 ho        1 MOL      0.387060
    184 O28         5.4570    1.9720    3.5420 oh        1 MOL     -0.820410
    185 H83         6.2730    1.5260    3.7820 ho        1 MOL      0.387060
    186 H84         4.7720    1.4390    3.9440 ho        1 MOL      0.387060
@<TRIPOS>BOND
     1    1    2 1   
     2    1    4 1   
     3    1    5 1   
     4    1    6 1   
     5    2    3 2   
     6    2    7 1   
     7    7    8 1   
     8    7   15 1   
     9    8    9 1   
    10    8   11 1   
    11    8   16 1   
    12    9   10 2   
    13    9   19 1   
    14   11   12 1   
    15   11   17 1   
    16   11   18 1   
    17   12   13 1   
    18   12   14 1   
    19   19   20 1   
    20   19   27 1   
    21   20   21 1   
    22   20   23 1   
    23   20   28 1   
    24   21   22 2   
    25   21   38 1   
    26   23   24 1   
    27   23   25 1   
    28   23   29 1   
    29   24   26 1   
    30   24   30 1   
    31   24   31 1   
    32   25   32 1   
    33   25   33 1   
    34   25   34 1   
    35   26   35 1   
    36   26   36 1   
    37   26   37 1   
    38   38   39 1   
    39   38   46 1   
    40   39   40 1   
    41   39   42 1   
    42   39   47 1   
    43   40   41 2   
    44   40   50 1   
    45   42   43 1   
    46   42   48 1   
    47   42   49 1   
    48   43   44 1   
    49   43   45 1   
    50   50   51 1   
    51   50   54 1   
    52   51   52 1   
    53   51   55 1   
    54   51   56 1   
    55   52   53 2   
    56   52   57 1   
    57   57   58 1   
    58   57   65 1   
    59   58   59 1   
    60   58   61 1   
    61   58   66 1   
    62   59   60 2   
    63   59   69 1   
    64   61   62 1   
    65   61   67 1   
    66   61   68 1   
    67   62   63 1   
    68   62   64 1   
    69   69   70 1   
    70   69   73 1   
    71   70   71 1   
    72   70   74 1   
    73   70   75 1   
    74   71   72 2   
    75   71   76 1   
    76   76   77 1   
    77   76   85 1   
    78   77   78 1   
    79   77   80 1   
    80   77   86 1   
    81   78   79 2   
    82   78   93 1   
    83   80   81 1   
    84   80   87 1   
    85   80   88 1   
    86   81   82 1   
    87   81   89 1   
    88   81   90 1   
    89   82   83 1   
    90   82   84 2   
    91   83   91 1   
    92   83   92 1   
    93   93   94 1   
    94   93  100 1   
    95   94   95 1   
    96   94   97 1   
    97   94  101 1   
    98   95   96 2   
    99   95  109 1   
   100   97   98 1   
   101   97   99 1   
   102   97  102 1   
   103   98  103 1   
   104   98  104 1   
   105   98  105 1   
   106   99  106 1   
   107   99  107 1   
   108   99  108 1   
   109  109  110 1   
   110  109  117 1   
   111  110  111 1   
   112  110  113 1   
   113  110  118 1   
   114  111  112 2   
   115  111  123 1   
   116  113  114 1   
   117  113  119 1   
   118  113  120 1   
   119  114  115 1   
   120  114  116 2   
   121  115  121 1   
   122  115  122 1   
   123  123  124 1   
   124  123  135 1   
   125  124  125 1   
   126  124  127 1   
   127  124  136 1   
   128  125  126 2   
   129  125  144 1   
   130  127  128 1   
   131  127  137 1   
   132  127  138 1   
   133  128  129 ar  
   134  128  130 ar  
   135  129  131 ar  
   136  129  139 1   
   137  130  132 ar  
   138  130  140 1   
   139  131  133 ar  
   140  131  141 1   
   141  132  133 ar  
   142  132  142 1   
   143  133  134 1   
   144  134  143 1   
   145  144  145 1   
   146  144  153 1   
   147  145  146 1   
   148  145  148 1   
   149  145  154 1   
   150  146  147 2   
   151  146  159 1   
   152  148  149 1   
   153  148  155 1   
   154  148  156 1   
   155  149  150 1   
   156  149  157 1   
   157  149  158 1   
   158  150  151 1   
   159  150  152 1   
   160  159  160 1   
   161  159  168 1   
   162  160  161 1   
   163  160  163 1   
   164  160  169 1   
   165  161  162 2   
   166  161  174 1   
   167  163  164 1   
   168  163  170 1   
   169  163  171 1   
   170  164  165 1   
   171  164  172 1   
   172  164  173 1   
   173  165  166 1   
   174  165  167 1   
   175  174  175 1   
   176  174  179 1   
   177  175  176 1   
   178  175  177 1   
   179  175  178 1   
   180  181  182 1   
   181  181  183 1   
   182  184  185 1   
   183  184  186 1   
@<TRIPOS>SUBSTRUCTURE
     1 MOL         1 TEMP              0 ****  ****    0 ROOT
