@<TRIPOS>MOLECULE
MOL
  178   175     1     0     0
SMALL
resp


@<TRIPOS>ATOM
      1 C1          3.2830   -1.8500    3.9560 c3        1 MOL     -0.278073
      2 C2          4.4870   -1.2320    3.2700 c         1 MOL      0.653662
      3 O1          4.3270   -0.4100    2.4040 o         1 MOL     -0.556779
      4 H1          2.4600   -1.9270    3.2460 hc        1 MOL      0.061261
      5 H2          3.5420   -2.8440    4.3210 hc        1 MOL      0.061261
      6 H3          2.9800   -1.2220    4.7940 hc        1 MOL      0.061261
      7 N1          5.6730   -1.5600    3.6710 n         1 MOL     -0.588492
      8 C3          6.9480   -1.1800    3.0210 c3        1 MOL      0.199174
      9 C4          6.9480   -1.4350    1.5070 c         1 MOL      0.605486
     10 O2          6.6320   -2.5050    1.0310 o         1 MOL     -0.570919
     11 C5          8.0410   -1.9340    3.6470 c3        1 MOL     -0.240459
     12 C6          9.4570   -1.3510    3.3940 c         1 MOL      0.676562
     13 O3          9.6180   -0.3820    2.5960 o         1 MOL     -0.711782
     14 O4         10.4090   -1.9120    4.0220 o         1 MOL     -0.711782
     15 H4          5.7700   -2.0510    4.5400 hn        1 MOL      0.318165
     16 H5          6.9920   -0.1000    3.1810 h1        1 MOL      0.032614
     17 H6          8.0060   -2.9690    3.3020 hc        1 MOL      0.036999
     18 H7          7.7990   -2.0260    4.7090 hc        1 MOL      0.036999
     19 N2          7.3510   -0.3960    0.7420 n         1 MOL     -0.515318
     20 C7          7.3880   -0.3890   -0.7220 c3        1 MOL      0.392644
     21 C8          6.0130    0.1160   -1.2940 c         1 MOL      0.459510
     22 O5          5.3540    1.0240   -0.7640 o         1 MOL     -0.552046
     23 C9          8.4470    0.6630   -1.1390 c3        1 MOL     -0.306703
     24 H8          7.7030    0.3820    1.2860 hn        1 MOL      0.272879
     25 H9          7.5770   -1.3780   -1.1340 h1        1 MOL     -0.002720
     26 H10         8.4410    0.8680   -2.2090 hc        1 MOL      0.082133
     27 H11         8.3020    1.4900   -0.4470 hc        1 MOL      0.082133
     28 H12         9.4070    0.1900   -0.9250 hc        1 MOL      0.082133
     29 N3          5.4420   -0.5740   -2.2760 n         1 MOL     -0.617317
     30 C10         4.5920    0.0580   -3.2200 c3        1 MOL      0.007132
     31 C11         5.1760    1.4220   -3.6900 c         1 MOL      0.635083
     32 O6          6.3230    1.7180   -3.9020 o         1 MOL     -0.516881
     33 C12         4.3550   -0.9560   -4.3340 c3        1 MOL     -0.226090
     34 C13         3.7740   -2.3480   -4.0200 c         1 MOL      0.751561
     35 O7          3.5710   -2.7300   -2.8240 o         1 MOL     -0.705377
     36 O8          3.4430   -3.0890   -4.9840 o         1 MOL     -0.705377
     37 H13         6.0410   -1.3680   -2.4780 hn        1 MOL      0.338415
     38 H14         3.6260    0.1350   -2.7160 h1        1 MOL      0.100728
     39 H15         5.3450   -1.0320   -4.7940 hc        1 MOL      0.038083
     40 H16         3.6620   -0.4700   -5.0320 hc        1 MOL      0.038083
     41 N4          4.2320    2.3380   -3.8620 n         1 MOL     -0.411740
     42 C14         4.5390    3.7070   -4.3580 c3        1 MOL     -0.133719
     43 C15         3.4340    4.7210   -4.0660 c         1 MOL      0.522243
     44 O9          3.5330    5.8410   -4.6130 o         1 MOL     -0.574273
     45 H17         3.2800    2.0080   -3.9680 hn        1 MOL      0.270183
     46 H18         4.6810    3.6570   -5.4420 h1        1 MOL      0.114077
     47 H19         5.4600    4.0660   -3.9020 h1        1 MOL      0.114077
     48 N5          2.3820    4.4650   -3.2970 n         1 MOL     -0.259709
     49 C16         1.2350    5.3430   -2.9860 c3        1 MOL      0.047622
     50 C17         0.7370    5.2960   -1.5400 c         1 MOL      0.429100
     51 O10         0.6670    4.1900   -0.9670 o         1 MOL     -0.432478
     52 C18         0.1050    4.9890   -3.9740 c3        1 MOL     -0.184548
     53 C19        -1.1000    5.8910   -3.7070 c         1 MOL      0.675057
     54 N6         -2.1820    5.3220   -3.2000 n         1 MOL     -0.801015
     55 O11        -1.0720    7.0440   -4.0310 o         1 MOL     -0.559900
     56 H20         2.4160    3.5680   -2.8300 hn        1 MOL      0.184539
     57 H21         1.3720    6.4000   -3.2380 h1        1 MOL      0.050969
     58 H22        -0.1760    3.9480   -3.8060 hc        1 MOL      0.063923
     59 H23         0.4320    5.0090   -5.0220 hc        1 MOL      0.063923
     60 H24        -2.2160    4.3790   -2.8310 hn        1 MOL      0.366718
     61 H25        -2.9910    5.8370   -2.8840 hn        1 MOL      0.366718
     62 N7          0.3760    6.4440   -0.9930 n         1 MOL     -0.429904
     63 C20        -0.0110    6.5620    0.3700 c3        1 MOL     -0.005212
     64 C21        -1.4360    6.3370    0.7470 c         1 MOL      0.514876
     65 O12        -2.2750    5.9280    0.0070 o         1 MOL     -0.478472
     66 H26         0.5380    7.2720   -1.5310 hn        1 MOL      0.313046
     67 H27         0.2250    7.5390    0.8080 h1        1 MOL      0.074429
     68 H28         0.6700    5.9290    0.9320 h1        1 MOL      0.074429
     69 N8         -1.7480    6.5530    2.0070 n         1 MOL     -0.356269
     70 C22        -3.1230    6.3930    2.6200 c3        1 MOL     -0.366304
     71 C23        -3.5230    4.9050    2.8430 c         1 MOL      0.571366
     72 O13        -4.6750    4.5720    2.9280 o         1 MOL     -0.575148
     73 C24        -3.2610    7.1820    3.9500 c3        1 MOL      0.551704
     74 C25        -2.4310    6.7450    5.1640 c3        1 MOL     -0.406540
     75 O14        -3.1100    8.5240    3.6890 oh        1 MOL     -0.638575
     76 H29        -0.9780    6.8100    2.6040 hn        1 MOL      0.224539
     77 H30        -3.8920    6.8160    1.9700 h1        1 MOL      0.176357
     78 H31        -4.2850    6.9370    4.2670 h1        1 MOL      0.019450
     79 H32        -2.1680    8.6000    3.4790 ho        1 MOL      0.372741
     80 H33        -1.3900    7.0530    5.1540 hc        1 MOL      0.095712
     81 H34        -2.9320    7.1510    6.0530 hc        1 MOL      0.095712
     82 H35        -2.6280    5.6790    5.0920 hc        1 MOL      0.095712
     83 N9         -2.5690    3.9840    2.9160 n         1 MOL     -0.161258
     84 C26        -2.8630    2.5480    2.9350 c3        1 MOL     -0.041548
     85 C27        -1.8910    1.8830    1.9880 c         1 MOL      0.577218
     86 O15        -1.0730    2.5690    1.3920 o         1 MOL     -0.513992
     87 C28        -2.8540    1.9350    4.3650 c3        1 MOL      0.085575
     88 C29        -1.6450    2.1980    5.1830 c3        1 MOL     -0.048963
     89 C30        -3.9940    2.4900    5.1610 c3        1 MOL     -0.261967
     90 C31        -0.3140    1.6260    4.6180 c3        1 MOL     -0.243212
     91 H36        -1.6860    4.3620    2.6100 hn        1 MOL      0.144195
     92 H37        -3.8730    2.4250    2.5460 h1        1 MOL      0.078691
     93 H38        -3.0110    0.8730    4.2100 hc        1 MOL      0.034584
     94 H39        -1.7420    1.7530    6.1710 hc        1 MOL      0.016134
     95 H40        -1.4950    3.2630    5.3600 hc        1 MOL      0.016134
     96 H41        -3.9090    3.5670    5.2870 hc        1 MOL      0.061697
     97 H42        -4.9300    2.2020    4.6880 hc        1 MOL      0.061697
     98 H43        -4.0130    1.9990    6.1360 hc        1 MOL      0.061697
     99 H44         0.4330    1.7580    5.3990 hc        1 MOL      0.081518
    100 H45        -0.3820    0.5690    4.3660 hc        1 MOL      0.081518
    101 H46         0.0110    2.0920    3.6910 hc        1 MOL      0.081518
    102 N10        -2.1350    0.6230    1.7970 n         1 MOL     -0.673954
    103 C32        -1.5450   -0.2890    0.8500 c3        1 MOL      0.485697
    104 C33        -2.5850   -0.9200   -0.1610 c         1 MOL      0.308908
    105 O16        -2.5070   -2.0690   -0.4810 o         1 MOL     -0.271524
    106 C34        -0.8370   -1.4100    1.6550 c3        1 MOL     -0.095258
    107 C35         0.2250   -2.1680    0.8590 c         1 MOL      0.658671
    108 O17         1.0170   -2.9590    1.3670 o         1 MOL     -0.757075
    109 O18         0.3770   -2.0070   -0.3400 o         1 MOL     -0.757075
    110 H47        -2.9560    0.2400    2.2390 hn        1 MOL      0.292271
    111 H48        -0.8190    0.3110    0.2920 h1        1 MOL      0.005806
    112 H49        -1.6110   -2.0440    2.0630 hc        1 MOL      0.013725
    113 H50        -0.3390   -1.0650    2.5680 hc        1 MOL      0.013725
    114 N11        -3.5800   -0.1280   -0.6170 n         1 MOL     -0.500401
    115 C36        -4.7570   -0.7070   -1.2750 c3        1 MOL      0.209899
    116 C37        -5.3250   -1.9570   -0.5840 c         1 MOL      0.201815
    117 O19        -5.4920   -2.0540    0.6150 o         1 MOL     -0.470244
    118 C38        -5.8330    0.3380   -1.3990 c3        1 MOL     -0.252722
    119 C39        -7.1170    0.0140   -2.1360 ca        1 MOL      0.024899
    120 C40        -7.0670    0.3470   -3.4600 ca        1 MOL     -0.098823
    121 C41        -8.0840   -0.8070   -1.5630 ca        1 MOL     -0.098823
    122 C42        -8.2170    0.0430   -4.2360 ca        1 MOL     -0.142883
    123 C43        -9.2000   -1.1590   -2.3250 ca        1 MOL     -0.142883
    124 C44        -9.2160   -0.8260   -3.7500 ca        1 MOL     -0.116047
    125 H51        -3.5950    0.8270   -0.2840 hn        1 MOL      0.286497
    126 H52        -4.4140   -1.0490   -2.2510 h1        1 MOL      0.023441
    127 H53        -5.4430    1.3110   -1.6940 hc        1 MOL      0.109823
    128 H54        -6.1740    0.5720   -0.3870 hc        1 MOL      0.109823
    129 H55        -6.3460    0.9550   -3.9880 ha        1 MOL      0.118967
    130 H56        -8.0290   -1.0240   -0.5000 ha        1 MOL      0.118967
    131 H57        -8.2780    0.3320   -5.2700 ha        1 MOL      0.115638
    132 H58       -10.0180   -1.7710   -1.9630 ha        1 MOL      0.115638
    133 H59        -9.9680   -1.1960   -4.4220 ha        1 MOL      0.112099
    134 N12        -5.4970   -3.0230   -1.4090 n         1 MOL     -0.060389
    135 C45        -6.1150   -4.2520   -0.9440 c3        1 MOL      0.414460
    136 C46        -5.3660   -4.9380    0.2150 c         1 MOL      0.062598
    137 O20        -5.9410   -5.7600    0.8780 o         1 MOL     -0.480677
    138 C47        -6.2080   -5.2250   -2.1760 c3        1 MOL     -0.117685
    139 C48        -6.3320   -4.2120   -3.2840 c3        1 MOL     -0.063972
    140 C49        -5.5160   -3.0210   -2.8800 c3        1 MOL      0.049192
    141 H60        -7.1220   -4.1010   -0.5820 h1        1 MOL     -0.025572
    142 H61        -5.2730   -5.7690   -2.2980 hc        1 MOL      0.051953
    143 H62        -7.1050   -5.8350   -2.0740 hc        1 MOL      0.051953
    144 H63        -5.9680   -4.5690   -4.2420 hc        1 MOL      0.012172
    145 H64        -7.3570   -3.8330   -3.2860 hc        1 MOL      0.012172
    146 H65        -4.5180   -3.1680   -3.2790 h1        1 MOL      0.039338
    147 H66        -5.9360   -2.0950   -3.2700 h1        1 MOL      0.039338
    148 N13        -4.0250   -4.7230    0.2920 n         1 MOL      0.093382
    149 C50        -3.1470   -5.6230    1.0850 c3        1 MOL     -0.224424
    150 C51        -3.3240   -5.5630    2.5860 c         1 MOL      0.500776
    151 O21        -2.9830   -6.4760    3.3690 o         1 MOL     -0.527557
    152 C52        -1.7410   -5.2050    0.7510 c3        1 MOL      0.008309
    153 C53        -1.3140   -5.7020   -0.6570 c3        1 MOL     -0.132191
    154 C54         0.1080   -5.3510   -0.9080 c         1 MOL      0.650357
    155 O22         1.0790   -5.7520   -0.1630 o         1 MOL     -0.735985
    156 O23         0.4370   -4.4800   -1.7720 o         1 MOL     -0.735985
    157 H67        -3.6540   -4.0100   -0.3160 hn        1 MOL     -0.012117
    158 H68        -3.3500   -6.6540    0.8110 h1        1 MOL      0.129037
    159 H69        -1.0950   -5.6340    1.5110 hc        1 MOL      0.058263
    160 H70        -1.7430   -4.1110    0.7910 hc        1 MOL      0.058263
    161 H71        -2.0720   -5.3850   -1.3850 hc        1 MOL      0.030790
    162 H72        -1.4330   -6.7860   -0.7210 hc        1 MOL      0.030790
    163 N14        -3.8910   -4.4100    3.1030 n         1 MOL     -0.235317
    164 C55        -3.9620   -4.0580    4.5900 c3        1 MOL     -0.324957
    165 H73        -3.0050   -4.2790    5.0610 h1        1 MOL      0.124437
    166 H74        -4.1850   -2.9970    4.7020 h1        1 MOL      0.124437
    167 H75        -4.7450   -4.6480    5.0660 h1        1 MOL      0.124437
    168 H76        -4.0790   -3.6490    2.4660 hn        1 MOL      0.244414
    169 Ca1         2.5220   -3.4550   -0.6130 Ca        1 MOL      1.763020
    170 O24         4.8310   -4.3800    0.2130 oh        1 MOL     -0.828858
    171 H77         5.5980   -3.8710    0.4900 ho        1 MOL      0.396069
    172 H78         4.9210   -5.2180    0.6680 ho        1 MOL      0.396069
    173 O25         3.0690   -5.6130   -2.0860 oh        1 MOL     -0.828858
    174 H79         2.2420   -6.0610   -2.2350 ho        1 MOL      0.396069
    175 H80         3.4020   -5.4200   -2.9660 ho        1 MOL      0.396069
    176 O26         3.3610   -1.0620   -0.0460 oh        1 MOL     -0.828858
    177 H81         3.6030   -0.8120    0.8470 ho        1 MOL      0.396069
    178 H82         3.5660   -0.2930   -0.5760 ho        1 MOL      0.396069
@<TRIPOS>BOND
     1    1    2 1   
     2    1    4 1   
     3    1    5 1   
     4    1    6 1   
     5    2    3 2   
     6    2    7 1   
     7    7    8 1   
     8    7   15 1   
     9    8    9 1   
    10    8   11 1   
    11    8   16 1   
    12    9   10 2   
    13    9   19 1   
    14   11   12 1   
    15   11   17 1   
    16   11   18 1   
    17   12   13 1   
    18   12   14 1   
    19   19   20 1   
    20   19   24 1   
    21   20   21 1   
    22   20   23 1   
    23   20   25 1   
    24   21   22 2   
    25   21   29 1   
    26   23   26 1   
    27   23   27 1   
    28   23   28 1   
    29   29   30 1   
    30   29   37 1   
    31   30   31 1   
    32   30   33 1   
    33   30   38 1   
    34   31   32 2   
    35   31   41 1   
    36   33   34 1   
    37   33   39 1   
    38   33   40 1   
    39   34   35 1   
    40   34   36 1   
    41   41   42 1   
    42   41   45 1   
    43   42   43 1   
    44   42   46 1   
    45   42   47 1   
    46   43   44 2   
    47   43   48 1   
    48   48   49 1   
    49   48   56 1   
    50   49   50 1   
    51   49   52 1   
    52   49   57 1   
    53   50   51 2   
    54   50   62 1   
    55   52   53 1   
    56   52   58 1   
    57   52   59 1   
    58   53   54 1   
    59   53   55 2   
    60   54   60 1   
    61   54   61 1   
    62   62   63 1   
    63   62   66 1   
    64   63   64 1   
    65   63   67 1   
    66   63   68 1   
    67   64   65 2   
    68   64   69 1   
    69   69   70 1   
    70   69   76 1   
    71   70   71 1   
    72   70   73 1   
    73   70   77 1   
    74   71   72 2   
    75   71   83 1   
    76   73   74 1   
    77   73   75 1   
    78   73   78 1   
    79   74   80 1   
    80   74   81 1   
    81   74   82 1   
    82   75   79 1   
    83   83   84 1   
    84   83   91 1   
    85   84   85 1   
    86   84   87 1   
    87   84   92 1   
    88   85   86 2   
    89   85  102 1   
    90   87   88 1   
    91   87   89 1   
    92   87   93 1   
    93   88   90 1   
    94   88   94 1   
    95   88   95 1   
    96   89   96 1   
    97   89   97 1   
    98   89   98 1   
    99   90   99 1   
   100   90  100 1   
   101   90  101 1   
   102  102  103 1   
   103  102  110 1   
   104  103  104 1   
   105  103  106 1   
   106  103  111 1   
   107  104  105 2   
   108  104  114 1   
   109  106  107 1   
   110  106  112 1   
   111  106  113 1   
   112  107  108 1   
   113  107  109 1   
   114  114  115 1   
   115  114  125 1   
   116  115  116 1   
   117  115  118 1   
   118  115  126 1   
   119  116  117 2   
   120  116  134 1   
   121  118  119 1   
   122  118  127 1   
   123  118  128 1   
   124  119  120 ar  
   125  119  121 ar  
   126  120  122 ar  
   127  120  129 1   
   128  121  123 ar  
   129  121  130 1   
   130  122  124 ar  
   131  122  131 1   
   132  123  124 ar  
   133  123  132 1   
   134  124  133 1   
   135  134  135 1   
   136  134  140 1   
   137  135  136 1   
   138  135  138 1   
   139  135  141 1   
   140  136  137 2   
   141  136  148 1   
   142  138  139 1   
   143  138  142 1   
   144  138  143 1   
   145  139  140 1   
   146  139  144 1   
   147  139  145 1   
   148  140  146 1   
   149  140  147 1   
   150  148  149 1   
   151  148  157 1   
   152  149  150 1   
   153  149  152 1   
   154  149  158 1   
   155  150  151 2   
   156  150  163 1   
   157  152  153 1   
   158  152  159 1   
   159  152  160 1   
   160  153  154 1   
   161  153  161 1   
   162  153  162 1   
   163  154  155 1   
   164  154  156 1   
   165  163  164 1   
   166  163  168 1   
   167  164  165 1   
   168  164  166 1   
   169  164  167 1   
   170  170  171 1   
   171  170  172 1   
   172  173  174 1   
   173  173  175 1   
   174  176  177 1   
   175  176  178 1   
@<TRIPOS>SUBSTRUCTURE
     1 MOL         1 TEMP              0 ****  ****    0 ROOT
