@<TRIPOS>MOLECULE
MOL
  192   187     1     0     0
SMALL
resp


@<TRIPOS>ATOM
      1 C1          9.4070    0.6390    1.9500 c3        1 MOL     -0.622305
      2 C2          8.2840    0.2560    0.9870 c         1 MOL      0.771168
      3 O1          7.1140    0.1910    1.3340 o         1 MOL     -0.680916
      4 H1          9.0060    1.2730    2.7410 hc        1 MOL      0.162715
      5 H2          9.8330   -0.2630    2.3900 hc        1 MOL      0.162715
      6 H3         10.1820    1.1800    1.4080 hc        1 MOL      0.162715
      7 N1          8.5300   -0.0910   -0.3010 n         1 MOL     -0.456949
      8 C3          7.4860   -0.2840   -1.2870 c3        1 MOL     -0.127284
      9 C4          6.9930   -1.7460   -1.2280 c         1 MOL      0.462286
     10 O2          6.8940   -2.4270   -2.2800 o         1 MOL     -0.431483
     11 C5          7.7550    0.1260   -2.6640 c3        1 MOL     -0.063037
     12 C6          9.0810   -0.4220   -3.2650 c         1 MOL      0.651541
     13 O3          9.1890   -0.2380   -4.4890 o         1 MOL     -0.626906
     14 O4          9.9340   -1.0260   -2.5600 o         1 MOL     -0.626906
     15 H4          9.4780   -0.2650   -0.5880 hn        1 MOL      0.237870
     16 H5          6.6500    0.3160   -0.9180 h1        1 MOL      0.146234
     17 H6          7.8710    1.2100   -2.6750 hc        1 MOL      0.048475
     18 H7          6.9260   -0.0910   -3.3430 hc        1 MOL      0.048475
     19 N2          6.8090   -2.3340   -0.0590 n         1 MOL     -0.320206
     20 C7          6.2960   -3.6710    0.2500 c3        1 MOL     -0.016322
     21 C8          4.8350   -3.8900   -0.3710 c         1 MOL      0.403691
     22 O5          4.6600   -4.9180   -1.0130 o         1 MOL     -0.516983
     23 C9          6.4000   -3.9210    1.7850 c3        1 MOL      0.056514
     24 C10         7.8420   -4.0600    2.3120 c3        1 MOL     -0.089406
     25 C11         7.9520   -4.2990    3.8180 c3        1 MOL      0.001855
     26 C12         9.4580   -4.3630    4.1760 c3        1 MOL      0.093044
     27 N3          9.6660   -4.4960    5.6250 n4        1 MOL     -0.284616
     28 H8          6.7330   -1.6640    0.6960 hn        1 MOL      0.233587
     29 H9          7.0170   -4.3520   -0.1790 h1        1 MOL      0.106394
     30 H10         5.8820   -4.8160    2.1140 hc        1 MOL      0.002583
     31 H11         5.9130   -3.1280    2.3450 hc        1 MOL      0.002583
     32 H12         8.4080   -3.1660    2.0490 hc        1 MOL      0.039578
     33 H13         8.2540   -4.9240    1.7780 hc        1 MOL      0.039578
     34 H14         7.3930   -5.2040    4.0760 hc        1 MOL      0.022333
     35 H15         7.5780   -3.4970    4.4590 hc        1 MOL      0.022333
     36 H16         9.9450   -3.4890    3.7420 hx        1 MOL      0.056157
     37 H17         9.8880   -5.2290    3.6710 hx        1 MOL      0.056157
     38 H18         9.1500   -5.2680    6.0130 hn        1 MOL      0.255329
     39 H19        10.6610   -4.6030    5.7440 hn        1 MOL      0.255329
     40 H20         9.3580   -3.6740    6.1310 hn        1 MOL      0.255329
     41 N4          3.8500   -2.9990   -0.2340 n         1 MOL     -0.322527
     42 C13         3.8700   -1.7640    0.6960 c3        1 MOL      0.017220
     43 C14         3.9630   -0.4360   -0.1510 c         1 MOL      0.072444
     44 O6          3.8310   -0.3960   -1.3890 o         1 MOL     -0.362359
     45 C15         2.6450   -1.7880    1.6350 c3        1 MOL     -0.324186
     46 C16         1.3190   -1.9320    0.9050 c         1 MOL      0.794237
     47 O7          1.0810   -1.2130   -0.0770 o         1 MOL     -0.702868
     48 O8          0.5300   -2.8400    1.3260 o         1 MOL     -0.702868
     49 H21         3.0180   -3.2580   -0.7380 hn        1 MOL      0.352393
     50 H22         4.6740   -1.7560    1.4380 h1        1 MOL      0.162357
     51 H23         2.5490   -1.0410    2.4320 hc        1 MOL      0.073245
     52 H24         2.7920   -2.6760    2.2470 hc        1 MOL      0.073245
     53 N5          4.1700    0.6390    0.5380 n         1 MOL     -0.181662
     54 C17         4.2950    1.9880   -0.0330 c3        1 MOL      0.103071
     55 C18         3.0730    2.5370   -0.6300 c         1 MOL      0.317819
     56 O9          1.9790    1.9460   -0.6760 o         1 MOL     -0.423408
     57 H25         4.4170    0.4720    1.5000 hn        1 MOL      0.244589
     58 H26         5.1390    1.9810   -0.7170 h1        1 MOL      0.045277
     59 H27         4.6840    2.5820    0.7870 h1        1 MOL      0.045277
     60 N6          3.2200    3.7070   -1.2320 n         1 MOL     -0.268517
     61 C19         2.2020    4.5720   -1.7410 c3        1 MOL      0.011409
     62 C20         2.5580    6.0210   -1.6680 c         1 MOL      0.449886
     63 O10         3.6840    6.4550   -1.5270 o         1 MOL     -0.532207
     64 C21         2.0540    4.2310   -3.2330 c3        1 MOL     -0.148189
     65 C22         1.5020    2.7510   -3.4940 c         1 MOL      0.609853
     66 O11         2.1060    1.9660   -4.2360 o         1 MOL     -0.652167
     67 O12         0.3880    2.4550   -2.9720 o         1 MOL     -0.652167
     68 H28         4.1610    4.0460   -1.1160 hn        1 MOL      0.229013
     69 H29         1.3210    4.4070   -1.1260 h1        1 MOL      0.124721
     70 H30         3.0250    4.1940   -3.7320 hc        1 MOL      0.062474
     71 H31         1.4100    4.9460   -3.7360 hc        1 MOL      0.062474
     72 N7          1.6090    6.9170   -1.7650 n         1 MOL     -0.369034
     73 C23         0.1110    6.7490   -2.0290 c3        1 MOL     -0.174785
     74 C24        -0.7010    6.3020   -0.8430 c         1 MOL      0.667430
     75 O13        -0.2840    6.5580    0.2820 o         1 MOL     -0.529545
     76 H32         1.9110    7.8720   -1.6800 hn        1 MOL      0.299617
     77 H33        -0.0870    6.2770   -2.9970 h1        1 MOL      0.102611
     78 H34        -0.1760    7.7760   -2.2320 h1        1 MOL      0.102611
     79 N8         -1.7820    5.5680   -1.1160 n         1 MOL     -0.682662
     80 C25        -2.6160    4.7990   -0.1270 c3        1 MOL      0.159570
     81 C26        -1.7580    3.7390    0.4810 c         1 MOL      0.765275
     82 O14        -1.0980    3.0470   -0.3540 o         1 MOL     -0.773524
     83 C27        -4.0050    4.3660   -0.7380 c3        1 MOL      0.526825
     84 C28        -4.8440    5.5350   -1.1360 c3        1 MOL     -0.314013
     85 O15        -4.7940    3.7170    0.2690 oh        1 MOL     -0.701253
     86 H35        -2.0770    5.3360   -2.0550 hn        1 MOL      0.319120
     87 H36        -2.9500    5.4810    0.6410 h1        1 MOL      0.031460
     88 H37        -3.8270    3.7350   -1.6150 h1        1 MOL     -0.031545
     89 H38        -5.5090    3.2640   -0.1840 ho        1 MOL      0.381175
     90 H39        -4.7660    6.4150   -0.4960 hc        1 MOL      0.074615
     91 H40        -4.5070    5.8320   -2.1360 hc        1 MOL      0.074615
     92 H41        -5.8540    5.1930   -1.3530 hc        1 MOL      0.074615
     93 N9         -1.7840    3.6080    1.8230 n         1 MOL     -0.738851
     94 C29        -0.9340    2.6790    2.5450 c3        1 MOL      0.441208
     95 C30        -1.2910    1.2430    2.1940 c         1 MOL      0.263029
     96 O16        -0.6940    0.6730    1.2660 o         1 MOL     -0.654528
     97 C31         0.5670    3.0560    2.4120 c3        1 MOL      0.038306
     98 C32         0.9000    4.4730    2.8860 c3        1 MOL     -0.170932
     99 C33         1.4330    1.9610    3.0740 c3        1 MOL     -0.333469
    100 C34         0.5680    4.7430    4.3490 c3        1 MOL     -0.105263
    101 H42        -2.3320    4.2620    2.3740 hn        1 MOL      0.342523
    102 H43        -1.1420    2.7940    3.6080 h1        1 MOL     -0.007537
    103 H44         0.8710    2.9880    1.3760 hc        1 MOL      0.061064
    104 H45         0.3790    5.1510    2.2190 hc        1 MOL      0.086825
    105 H46         1.9690    4.6740    2.7990 hc        1 MOL      0.086825
    106 H47         1.1580    1.8120    4.1180 hc        1 MOL      0.087446
    107 H48         1.3210    1.0270    2.5370 hc        1 MOL      0.087446
    108 H49         2.4730    2.2860    3.0380 hc        1 MOL      0.087446
    109 H50         1.0930    5.6740    4.5990 hc        1 MOL      0.026561
    110 H51        -0.5060    4.8920    4.5140 hc        1 MOL      0.026561
    111 H52         0.7790    4.0390    5.1500 hc        1 MOL      0.026561
    112 N10        -2.2420    0.6160    2.8950 n         1 MOL     -0.108554
    113 C35        -2.6660   -0.7980    2.7240 c3        1 MOL     -0.236239
    114 C36        -4.1830   -0.9310    2.9540 c         1 MOL      0.482019
    115 O17        -4.6420   -2.0420    3.3130 o         1 MOL     -0.551420
    116 C37        -1.9080   -1.6940    3.7470 c3        1 MOL      0.278166
    117 C38        -2.1470   -1.4190    5.2550 c3        1 MOL     -0.197936
    118 O18        -0.4910   -1.6090    3.7250 oh        1 MOL     -0.535401
    119 H53        -2.5720    1.1720    3.6690 hn        1 MOL      0.195351
    120 H54        -2.4280   -1.0530    1.6900 h1        1 MOL      0.196111
    121 H55        -2.1910   -2.7190    3.5200 h1        1 MOL      0.051329
    122 H56        -0.2450   -1.9400    2.8550 ho        1 MOL      0.342295
    123 H57        -1.4920   -2.0880    5.8100 hc        1 MOL      0.046465
    124 H58        -1.8970   -0.4130    5.5750 hc        1 MOL      0.046465
    125 H59        -3.2060   -1.6370    5.4210 hc        1 MOL      0.046465
    126 N11        -4.9050    0.0950    2.6730 n         1 MOL     -0.022204
    127 C39        -6.3380    0.1600    2.8360 c3        1 MOL     -0.204130
    128 C40        -6.9690   -0.5260    1.5700 c         1 MOL      0.662143
    129 O19        -7.5060    0.1630    0.7240 o         1 MOL     -0.529925
    130 C41        -6.9410    1.5420    3.0430 c3        1 MOL      0.334563
    131 C42        -6.9270    1.7570    4.5640 c3        1 MOL     -0.129466
    132 O20        -6.0630    2.5050    2.4550 oh        1 MOL     -0.598163
    133 H60        -4.4040    0.8880    2.2970 hn        1 MOL      0.114588
    134 H61        -6.5510   -0.4840    3.6900 h1        1 MOL      0.080879
    135 H62        -7.9610    1.5810    2.6520 h1        1 MOL      0.013281
    136 H63        -6.5960    3.1450    1.9910 ho        1 MOL      0.394662
    137 H64        -5.9560    1.5610    5.0120 hc        1 MOL      0.027467
    138 H65        -7.2460    2.7680    4.8240 hc        1 MOL      0.027467
    139 H66        -7.7060    1.1280    5.0010 hc        1 MOL      0.027467
    140 N12        -6.7430   -1.8610    1.4320 n         1 MOL     -0.698749
    141 C43        -6.5720   -2.5650    0.1280 c3        1 MOL      0.379211
    142 C44        -5.3750   -2.0280   -0.7420 c         1 MOL      0.464355
    143 O21        -4.9260   -0.9100   -0.5620 o         1 MOL     -0.489097
    144 C45        -7.8810   -2.4510   -0.6560 c3        1 MOL     -0.462909
    145 C46        -9.0860   -2.9610    0.1540 c3        1 MOL      0.098348
    146 C47       -10.3700   -2.6910   -0.6160 c3        1 MOL      0.229933
    147 C48       -11.6510   -3.2830    0.0010 c3        1 MOL     -0.058614
    148 N13       -12.8460   -2.9070   -0.8550 n4        1 MOL     -0.097963
    149 H67        -6.1920   -2.3200    2.1490 hn        1 MOL      0.319730
    150 H68        -6.3960   -3.6190    0.3020 h1        1 MOL      0.006866
    151 H69        -7.7270   -3.0610   -1.5500 hc        1 MOL      0.113762
    152 H70        -7.9540   -1.4490   -1.0630 hc        1 MOL      0.113762
    153 H71        -9.1780   -2.5100    1.1370 hc        1 MOL      0.006794
    154 H72        -9.0300   -4.0560    0.2080 hc        1 MOL      0.006794
    155 H73       -10.3350   -3.1900   -1.5890 hc        1 MOL     -0.033346
    156 H74       -10.5900   -1.6330   -0.7350 hc        1 MOL     -0.033346
    157 H75       -11.6760   -2.7240    0.9330 hx        1 MOL      0.070833
    158 H76       -11.5410   -4.3480    0.1740 hx        1 MOL      0.070833
    159 H77       -12.8830   -1.9340   -1.1310 hn        1 MOL      0.198196
    160 H78       -12.7840   -3.3710   -1.7530 hn        1 MOL      0.198196
    161 H79       -13.7430   -3.1720   -0.4800 hn        1 MOL      0.198196
    162 N14        -4.7710   -3.0440   -1.4040 n         1 MOL     -0.563142
    163 C49        -3.6180   -2.7920   -2.2890 c3        1 MOL      0.250623
    164 C50        -2.3470   -2.5720   -1.4760 c         1 MOL      0.402543
    165 O22        -1.6360   -1.6090   -1.7210 o         1 MOL     -0.614796
    166 C51        -3.3800   -3.9370   -3.2420 c3        1 MOL      0.022470
    167 C52        -4.5480   -3.9150   -4.2250 c3        1 MOL     -0.181373
    168 C53        -4.2330   -4.9710   -5.3340 c         1 MOL      0.679137
    169 O23        -3.9160   -4.6390   -6.5080 o         1 MOL     -0.624560
    170 O24        -4.2480   -6.1870   -5.0430 o         1 MOL     -0.624560
    171 H80        -5.3520   -3.8600   -1.5540 hn        1 MOL      0.356374
    172 H81        -3.7890   -1.8700   -2.8410 h1        1 MOL      0.093202
    173 H82        -3.3580   -4.9160   -2.7530 hc        1 MOL      0.037996
    174 H83        -2.4890   -3.7360   -3.8390 hc        1 MOL      0.037996
    175 H84        -4.6900   -2.9500   -4.7100 hc        1 MOL     -0.019316
    176 H85        -5.4060   -4.2540   -3.6490 hc        1 MOL     -0.019316
    177 N15        -1.8310   -3.4270   -0.5720 n         1 MOL     -0.319362
    178 C54        -2.2890   -4.7080   -0.0320 c3        1 MOL     -0.028159
    179 H86        -1.9550   -5.5160   -0.6830 h1        1 MOL      0.041329
    180 H87        -1.8750   -4.8510    0.9660 h1        1 MOL      0.041329
    181 H88        -3.3780   -4.7120    0.0220 h1        1 MOL      0.041329
    182 H89        -0.9350   -3.0920   -0.2510 hn        1 MOL      0.312129
    183 Ca1        -0.3320    0.6010   -1.2750 Ca        1 MOL      1.887451
    184 O25        -3.1280    0.9090   -0.7230 oh        1 MOL     -0.915758
    185 H90        -3.8090    0.2910   -0.9950 ho        1 MOL      0.426149
    186 H91        -3.5960    1.6060   -0.2590 ho        1 MOL      0.426149
    187 O26        -1.4950    0.3480   -3.6990 oh        1 MOL     -0.915758
    188 H92        -0.9390    0.7790   -4.3570 ho        1 MOL      0.426149
    189 H93        -1.9130   -0.3760   -4.1730 ho        1 MOL      0.426149
    190 O27         1.6060   -0.4150   -2.9090 oh        1 MOL     -0.915758
    191 H94         1.7250    0.2690   -3.5630 ho        1 MOL      0.426149
    192 H95         2.4620   -0.4740   -2.4790 ho        1 MOL      0.426149
@<TRIPOS>BOND
     1    1    2 1   
     2    1    4 1   
     3    1    5 1   
     4    1    6 1   
     5    2    3 2   
     6    2    7 1   
     7    7    8 1   
     8    7   15 1   
     9    8    9 1   
    10    8   11 1   
    11    8   16 1   
    12    9   10 2   
    13    9   19 1   
    14   11   12 1   
    15   11   17 1   
    16   11   18 1   
    17   12   13 1   
    18   12   14 1   
    19   19   20 1   
    20   19   28 1   
    21   20   21 1   
    22   20   23 1   
    23   20   29 1   
    24   21   22 2   
    25   21   41 1   
    26   23   24 1   
    27   23   30 1   
    28   23   31 1   
    29   24   25 1   
    30   24   32 1   
    31   24   33 1   
    32   25   26 1   
    33   25   34 1   
    34   25   35 1   
    35   26   27 1   
    36   26   36 1   
    37   26   37 1   
    38   27   38 1   
    39   27   39 1   
    40   27   40 1   
    41   41   42 1   
    42   41   49 1   
    43   42   43 1   
    44   42   45 1   
    45   42   50 1   
    46   43   44 2   
    47   43   53 1   
    48   45   46 1   
    49   45   51 1   
    50   45   52 1   
    51   46   47 1   
    52   46   48 1   
    53   53   54 1   
    54   53   57 1   
    55   54   55 1   
    56   54   58 1   
    57   54   59 1   
    58   55   56 2   
    59   55   60 1   
    60   60   61 1   
    61   60   68 1   
    62   61   62 1   
    63   61   64 1   
    64   61   69 1   
    65   62   63 2   
    66   62   72 1   
    67   64   65 1   
    68   64   70 1   
    69   64   71 1   
    70   65   66 1   
    71   65   67 1   
    72   72   73 1   
    73   72   76 1   
    74   73   74 1   
    75   73   77 1   
    76   73   78 1   
    77   74   75 2   
    78   74   79 1   
    79   79   80 1   
    80   79   86 1   
    81   80   81 1   
    82   80   83 1   
    83   80   87 1   
    84   81   82 2   
    85   81   93 1   
    86   83   84 1   
    87   83   85 1   
    88   83   88 1   
    89   84   90 1   
    90   84   91 1   
    91   84   92 1   
    92   85   89 1   
    93   93   94 1   
    94   93  101 1   
    95   94   95 1   
    96   94   97 1   
    97   94  102 1   
    98   95   96 2   
    99   95  112 1   
   100   97   98 1   
   101   97   99 1   
   102   97  103 1   
   103   98  100 1   
   104   98  104 1   
   105   98  105 1   
   106   99  106 1   
   107   99  107 1   
   108   99  108 1   
   109  100  109 1   
   110  100  110 1   
   111  100  111 1   
   112  112  113 1   
   113  112  119 1   
   114  113  114 1   
   115  113  116 1   
   116  113  120 1   
   117  114  115 2   
   118  114  126 1   
   119  116  117 1   
   120  116  118 1   
   121  116  121 1   
   122  117  123 1   
   123  117  124 1   
   124  117  125 1   
   125  118  122 1   
   126  126  127 1   
   127  126  133 1   
   128  127  128 1   
   129  127  130 1   
   130  127  134 1   
   131  128  129 2   
   132  128  140 1   
   133  130  131 1   
   134  130  132 1   
   135  130  135 1   
   136  131  137 1   
   137  131  138 1   
   138  131  139 1   
   139  132  136 1   
   140  140  141 1   
   141  140  149 1   
   142  141  142 1   
   143  141  144 1   
   144  141  150 1   
   145  142  143 2   
   146  142  162 1   
   147  144  145 1   
   148  144  151 1   
   149  144  152 1   
   150  145  146 1   
   151  145  153 1   
   152  145  154 1   
   153  146  147 1   
   154  146  155 1   
   155  146  156 1   
   156  147  148 1   
   157  147  157 1   
   158  147  158 1   
   159  148  159 1   
   160  148  160 1   
   161  148  161 1   
   162  162  163 1   
   163  162  171 1   
   164  163  164 1   
   165  163  166 1   
   166  163  172 1   
   167  164  165 2   
   168  164  177 1   
   169  166  167 1   
   170  166  173 1   
   171  166  174 1   
   172  167  168 1   
   173  167  175 1   
   174  167  176 1   
   175  168  169 1   
   176  168  170 1   
   177  177  178 1   
   178  177  182 1   
   179  178  179 1   
   180  178  180 1   
   181  178  181 1   
   182  184  185 1   
   183  184  186 1   
   184  187  188 1   
   185  187  189 1   
   186  190  191 1   
   187  190  192 1   
@<TRIPOS>SUBSTRUCTURE
     1 MOL         1 TEMP              0 ****  ****    0 ROOT
