@<TRIPOS>MOLECULE
MOL
  192   187     1     0     0
SMALL
resp


@<TRIPOS>ATOM
      1 C1          9.0130    1.0650    2.3660 c3        1 MOL     -0.571205
      2 C2          8.2160    0.9870    1.0590 c         1 MOL      0.779504
      3 O1          7.2780    1.7670    0.9120 o         1 MOL     -0.644841
      4 H1          8.7470    1.9780    2.8990 hc        1 MOL      0.140106
      5 H2          8.7790    0.2010    2.9880 hc        1 MOL      0.140106
      6 H3         10.0800    1.0740    2.1420 hc        1 MOL      0.140106
      7 N1          8.4950    0.0520    0.1750 n         1 MOL     -0.491750
      8 C3          7.8320   -0.2280   -1.0850 c3        1 MOL     -0.009518
      9 C4          7.1940   -1.6410   -1.1890 c         1 MOL      0.330856
     10 O2          6.8640   -2.1210   -2.3020 o         1 MOL     -0.414992
     11 C5          8.8700   -0.1280   -2.2400 c3        1 MOL     -0.299159
     12 C6         10.2170   -0.8310   -2.0970 c         1 MOL      0.769519
     13 O3         10.2730   -2.0030   -1.7140 o         1 MOL     -0.668653
     14 O4         11.2810   -0.2340   -2.3370 o         1 MOL     -0.668653
     15 H4          9.3130   -0.5260    0.2690 hn        1 MOL      0.274510
     16 H5          7.0250    0.4680   -1.2750 h1        1 MOL      0.164253
     17 H6          9.2730    0.8940   -2.2880 hc        1 MOL      0.085066
     18 H7          8.3920   -0.1870   -3.2150 hc        1 MOL      0.085066
     19 N2          6.6970   -2.1680   -0.0170 n         1 MOL     -0.171594
     20 C7          6.1850   -3.5450    0.1610 c3        1 MOL      0.038342
     21 C8          4.8230   -3.9360   -0.4200 c         1 MOL      0.468153
     22 O5          4.7560   -5.0340   -1.0300 o         1 MOL     -0.554348
     23 C9          6.1860   -3.9340    1.6710 c3        1 MOL     -0.153236
     24 C10         7.6540   -4.0320    2.0600 c3        1 MOL     -0.006749
     25 C11         7.8350   -4.2530    3.5890 c3        1 MOL     -0.264306
     26 C12         9.3650   -4.2410    3.9520 c3        1 MOL      0.139605
     27 N3          9.7140   -4.7340    5.3250 n4        1 MOL     -0.219645
     28 H8          6.6670   -1.5170    0.7560 hn        1 MOL      0.156386
     29 H9          6.8240   -4.1740   -0.4630 h1        1 MOL      0.097352
     30 H10         5.7240   -4.9080    1.8860 hc        1 MOL      0.077428
     31 H11         5.6380   -3.1190    2.1360 hc        1 MOL      0.077428
     32 H12         8.1620   -3.1370    1.7090 hc        1 MOL      0.050331
     33 H13         8.1360   -4.8790    1.5640 hc        1 MOL      0.050331
     34 H14         7.4840   -5.2280    3.9180 hc        1 MOL      0.088772
     35 H15         7.3150   -3.4930    4.1800 hc        1 MOL      0.088772
     36 H16         9.8800   -3.3040    3.7900 hx        1 MOL      0.057545
     37 H17         9.8690   -4.9240    3.2680 hx        1 MOL      0.057545
     38 H18         9.5300   -5.7080    5.5270 hn        1 MOL      0.236057
     39 H19        10.6730   -4.5870    5.6060 hn        1 MOL      0.236057
     40 H20         9.1340   -4.2310    5.9910 hn        1 MOL      0.236057
     41 N4          3.7840   -3.1510   -0.3490 n         1 MOL     -0.437760
     42 C13         3.6520   -1.9130    0.4030 c3        1 MOL      0.178729
     43 C14         3.7840   -0.6490   -0.4800 c         1 MOL      0.232002
     44 O6          3.7160   -0.7070   -1.7500 o         1 MOL     -0.394275
     45 C15         2.4020   -1.8710    1.2400 c3        1 MOL     -0.213890
     46 C16         1.1520   -2.2330    0.5090 c         1 MOL      0.599251
     47 O7          0.8420   -1.6090   -0.5110 o         1 MOL     -0.629323
     48 O8          0.4020   -3.1510    0.9560 o         1 MOL     -0.629323
     49 H21         2.9570   -3.5360   -0.7900 hn        1 MOL      0.356526
     50 H22         4.4630   -1.9080    1.1400 h1        1 MOL      0.050319
     51 H23         2.4000   -0.8340    1.5800 hc        1 MOL      0.038959
     52 H24         2.4650   -2.4710    2.1480 hc        1 MOL      0.038959
     53 N5          3.9290    0.5030    0.2690 n         1 MOL     -0.345841
     54 C17         4.0860    1.8520   -0.3980 c3        1 MOL     -0.191674
     55 C18         2.8840    2.4980   -0.9870 c         1 MOL      0.576684
     56 O9          1.8370    1.9510   -0.7820 o         1 MOL     -0.417439
     57 H25         3.8810    0.4680    1.2780 hn        1 MOL      0.280200
     58 H26         4.7800    1.6240   -1.2020 h1        1 MOL      0.148695
     59 H27         4.5490    2.4750    0.3730 h1        1 MOL      0.148695
     60 N6          3.0440    3.6380   -1.7620 n         1 MOL     -0.658419
     61 C19         1.9490    4.4840   -2.2930 c3        1 MOL      0.459067
     62 C20         2.2560    6.0250   -2.3020 c         1 MOL      0.350375
     63 O10         3.4030    6.3700   -2.1880 o         1 MOL     -0.537269
     64 C21         1.6200    3.9840   -3.7160 c3        1 MOL     -0.290782
     65 C22         1.0530    2.5440   -3.6830 c         1 MOL      0.739988
     66 O11         1.7320    1.6450   -4.1910 o         1 MOL     -0.686112
     67 O12        -0.0250    2.3310   -3.1060 o         1 MOL     -0.686112
     68 H28         3.9710    3.9950   -1.9490 hn        1 MOL      0.334669
     69 H29         1.1320    4.3360   -1.5880 h1        1 MOL     -0.059535
     70 H30         2.5150    4.0240   -4.3360 hc        1 MOL      0.057714
     71 H31         0.8130    4.5670   -4.1750 hc        1 MOL      0.057714
     72 N7          1.3380    6.8860   -2.2890 n         1 MOL     -0.273427
     73 C23        -0.1000    6.7920   -2.4680 c3        1 MOL     -0.236530
     74 C24        -0.7400    6.2170   -1.2270 c         1 MOL      0.639662
     75 O13        -0.5600    6.8180   -0.1340 o         1 MOL     -0.523842
     76 H32         1.6560    7.8310   -2.1250 hn        1 MOL      0.286857
     77 H33        -0.3040    6.1860   -3.3530 h1        1 MOL      0.117265
     78 H34        -0.5750    7.7540   -2.6260 h1        1 MOL      0.117265
     79 N8         -1.7620    5.3580   -1.4020 n         1 MOL     -0.521864
     80 C25        -2.4880    4.7780   -0.2900 c3        1 MOL     -0.076003
     81 C26        -1.6010    3.7420    0.3050 c         1 MOL      0.569074
     82 O14        -1.0830    2.8990   -0.4390 o         1 MOL     -0.506898
     83 C27        -3.8820    4.3350   -0.7540 c3        1 MOL      0.376091
     84 C28        -4.7790    4.1160    0.4500 c3        1 MOL     -0.245821
     85 O15        -3.7390    3.1540   -1.4880 oh        1 MOL     -0.668429
     86 H35        -1.8810    4.9200   -2.3010 hn        1 MOL      0.268670
     87 H36        -2.6330    5.6250    0.3760 h1        1 MOL      0.069406
     88 H37        -4.3390    5.1570   -1.3130 h1        1 MOL      0.024535
     89 H38        -3.3610    3.1810   -2.3760 ho        1 MOL      0.444501
     90 H39        -4.5790    3.1090    0.8280 hc        1 MOL      0.075974
     91 H40        -4.8240    4.8030    1.2820 hc        1 MOL      0.075974
     92 H41        -5.8110    4.2230    0.1140 hc        1 MOL      0.075974
     93 N9         -1.4500    3.7520    1.6340 n         1 MOL     -0.437880
     94 C29        -0.4960    2.9120    2.3810 c3        1 MOL      0.075548
     95 C30        -0.7300    1.4190    2.2090 c         1 MOL      0.615686
     96 O16        -0.1280    0.7870    1.3310 o         1 MOL     -0.625437
     97 C31         0.9610    3.3590    2.2140 c3        1 MOL      0.159198
     98 C32         1.2330    4.8370    2.3290 c3        1 MOL     -0.250710
     99 C33         2.0120    2.6010    3.1130 c3        1 MOL     -0.328017
    100 C34         0.8800    5.4980    3.6920 c3        1 MOL     -0.162057
    101 H42        -1.8530    4.5000    2.1860 hn        1 MOL      0.272956
    102 H43        -0.8090    3.1720    3.3890 h1        1 MOL      0.006729
    103 H44         1.2350    3.0370    1.2080 hc        1 MOL     -0.014580
    104 H45         0.7550    5.3860    1.5160 hc        1 MOL      0.112785
    105 H46         2.2970    5.0140    2.1850 hc        1 MOL      0.112785
    106 H47         1.8070    1.5320    3.0530 hc        1 MOL      0.095030
    107 H48         3.0330    2.8780    2.8720 hc        1 MOL      0.095030
    108 H49         1.7870    2.7510    4.1770 hc        1 MOL      0.095030
    109 H50         1.4380    4.9990    4.4700 hc        1 MOL      0.047951
    110 H51         1.1360    6.5600    3.6590 hc        1 MOL      0.047951
    111 H52        -0.1860    5.3680    3.8920 hc        1 MOL      0.047951
    112 N10        -1.8030    0.9020    2.8380 n         1 MOL     -0.527836
    113 C35        -2.3260   -0.4830    2.7810 c3        1 MOL     -0.028643
    114 C36        -3.8500   -0.6020    3.0010 c         1 MOL      0.499647
    115 O17        -4.3620   -1.7230    3.1920 o         1 MOL     -0.561693
    116 C37        -1.4740   -1.4550    3.6750 c3        1 MOL      0.387879
    117 C38        -1.3600   -1.0020    5.1310 c3        1 MOL     -0.253835
    118 O18        -0.1350   -1.6210    3.2170 oh        1 MOL     -0.484030
    119 H53        -2.3430    1.6120    3.3100 hn        1 MOL      0.282058
    120 H54        -2.1660   -0.8410    1.7590 h1        1 MOL      0.114474
    121 H55        -1.9460   -2.4340    3.7210 h1        1 MOL      0.014600
    122 H56        -0.2360   -2.1250    2.4060 ho        1 MOL      0.242737
    123 H57        -2.3170   -0.5430    5.4050 hc        1 MOL      0.052314
    124 H58        -1.0450   -1.7930    5.8130 hc        1 MOL      0.052314
    125 H59        -0.5990   -0.2260    5.2060 hc        1 MOL      0.052314
    126 N11        -4.6480    0.4830    2.9070 n         1 MOL     -0.225112
    127 C39        -6.1210    0.3830    2.8670 c3        1 MOL     -0.083858
    128 C40        -6.6410   -0.2800    1.5970 c         1 MOL      0.603946
    129 O19        -6.7920    0.3990    0.5920 o         1 MOL     -0.528134
    130 C41        -6.7640    1.7540    3.0440 c3        1 MOL      0.650045
    131 C42        -8.2630    1.7640    3.0570 c3        1 MOL     -0.488676
    132 O20        -6.2560    2.5310    4.1220 oh        1 MOL     -0.731384
    133 H60        -4.2210    1.3960    2.9150 hn        1 MOL      0.186251
    134 H61        -6.5350   -0.1980    3.6930 h1        1 MOL      0.049642
    135 H62        -6.4380    2.3700    2.2080 h1        1 MOL     -0.121222
    136 H63        -6.3640    3.4780    3.9990 ho        1 MOL      0.428037
    137 H64        -8.6370    2.7840    3.1020 hc        1 MOL      0.116310
    138 H65        -8.6400    1.4640    2.0850 hc        1 MOL      0.116310
    139 H66        -8.6540    1.2340    3.9260 hc        1 MOL      0.116310
    140 N12        -6.6690   -1.6120    1.6580 n         1 MOL     -0.770912
    141 C43        -6.6350   -2.4910    0.4660 c3        1 MOL      0.328570
    142 C44        -5.4110   -2.3150   -0.4850 c         1 MOL      0.590109
    143 O21        -4.8090   -1.2720   -0.6230 o         1 MOL     -0.511907
    144 C45        -7.9770   -2.4410   -0.4050 c3        1 MOL     -0.676417
    145 C46        -9.1820   -2.3390    0.4740 c3        1 MOL      0.684235
    146 C47       -10.4920   -2.2490   -0.3540 c3        1 MOL     -0.236125
    147 C48       -11.5610   -2.2570    0.6950 c3        1 MOL      0.178948
    148 N13       -12.8960   -1.8320    0.1220 n4        1 MOL     -0.214356
    149 H67        -6.3380   -2.0350    2.5090 hn        1 MOL      0.401129
    150 H68        -6.5420   -3.4770    0.9220 h1        1 MOL      0.030251
    151 H69        -8.0540   -3.3940   -0.9360 hc        1 MOL      0.158878
    152 H70        -7.9210   -1.5350   -0.9950 hc        1 MOL      0.158878
    153 H71        -9.0650   -1.5320    1.1970 hc        1 MOL     -0.119987
    154 H72        -9.2420   -3.2770    1.0320 hc        1 MOL     -0.119987
    155 H73       -10.4950   -3.1140   -1.0220 hc        1 MOL      0.065759
    156 H74       -10.4110   -1.2810   -0.8320 hc        1 MOL      0.065759
    157 H75       -11.2710   -1.5510    1.4720 hx        1 MOL      0.014510
    158 H76       -11.6850   -3.2260    1.1790 hx        1 MOL      0.014510
    159 H77       -12.7880   -0.9330   -0.3330 hn        1 MOL      0.210688
    160 H78       -13.1510   -2.5780   -0.5130 hn        1 MOL      0.210688
    161 H79       -13.7020   -1.8510    0.7340 hn        1 MOL      0.210688
    162 N14        -5.0470   -3.3120   -1.2250 n         1 MOL     -0.596114
    163 C49        -3.8690   -3.2690   -2.1400 c3        1 MOL      0.331010
    164 C50        -2.5500   -2.8540   -1.4140 c         1 MOL      0.455580
    165 O22        -1.9300   -1.8400   -1.7500 o         1 MOL     -0.611040
    166 C51        -3.8240   -4.6240   -2.9530 c3        1 MOL      0.036392
    167 C52        -4.9170   -4.5020   -4.0260 c3        1 MOL     -0.219740
    168 C53        -4.8950   -5.7630   -4.8000 c         1 MOL      0.698693
    169 O23        -5.7600   -6.6230   -4.6390 o         1 MOL     -0.631441
    170 O24        -3.9770   -6.0290   -5.5920 o         1 MOL     -0.631441
    171 H80        -5.6910   -4.0790   -1.3010 hn        1 MOL      0.313279
    172 H81        -3.9280   -2.4510   -2.8580 h1        1 MOL     -0.006846
    173 H82        -4.0410   -5.4700   -2.3050 hc        1 MOL      0.032311
    174 H83        -2.8930   -4.7570   -3.5100 hc        1 MOL      0.032311
    175 H84        -4.7230   -3.6770   -4.7100 hc        1 MOL      0.023101
    176 H85        -5.8830   -4.3650   -3.5570 hc        1 MOL      0.023101
    177 N15        -2.0510   -3.6050   -0.3970 n         1 MOL     -0.470882
    178 C54        -2.5810   -4.8580    0.2440 c3        1 MOL     -0.034472
    179 H86        -1.9810   -5.7110   -0.0760 h1        1 MOL      0.045076
    180 H87        -2.5270   -4.7640    1.3280 h1        1 MOL      0.045076
    181 H88        -3.6170   -5.0110   -0.0570 h1        1 MOL      0.045076
    182 H89        -1.2610   -3.1950    0.0700 hn        1 MOL      0.415704
    183 Ca1        -0.4830    0.5030   -1.3070 Ca        1 MOL      1.831038
    184 O25        -2.9000    0.6570   -0.2410 oh        1 MOL     -0.962126
    185 H90        -3.5930   -0.0020   -0.2940 ho        1 MOL      0.450693
    186 H91        -3.2900    1.4400   -0.6240 ho        1 MOL      0.450693
    187 O26        -2.4140    0.8360   -3.2970 oh        1 MOL     -0.962126
    188 H92        -3.3280    0.5410   -3.2630 ho        1 MOL      0.450693
    189 H93        -2.1580    0.7170   -4.2110 ho        1 MOL      0.450693
    190 O27         1.2090   -0.5370   -3.0320 oh        1 MOL     -0.962126
    191 H94         2.0450   -0.9440   -2.8430 ho        1 MOL      0.450693
    192 H95         1.4340    0.2270   -3.5690 ho        1 MOL      0.450693
@<TRIPOS>BOND
     1    1    2 1   
     2    1    4 1   
     3    1    5 1   
     4    1    6 1   
     5    2    3 2   
     6    2    7 1   
     7    7    8 1   
     8    7   15 1   
     9    8    9 1   
    10    8   11 1   
    11    8   16 1   
    12    9   10 2   
    13    9   19 1   
    14   11   12 1   
    15   11   17 1   
    16   11   18 1   
    17   12   13 1   
    18   12   14 1   
    19   19   20 1   
    20   19   28 1   
    21   20   21 1   
    22   20   23 1   
    23   20   29 1   
    24   21   22 2   
    25   21   41 1   
    26   23   24 1   
    27   23   30 1   
    28   23   31 1   
    29   24   25 1   
    30   24   32 1   
    31   24   33 1   
    32   25   26 1   
    33   25   34 1   
    34   25   35 1   
    35   26   27 1   
    36   26   36 1   
    37   26   37 1   
    38   27   38 1   
    39   27   39 1   
    40   27   40 1   
    41   41   42 1   
    42   41   49 1   
    43   42   43 1   
    44   42   45 1   
    45   42   50 1   
    46   43   44 2   
    47   43   53 1   
    48   45   46 1   
    49   45   51 1   
    50   45   52 1   
    51   46   47 1   
    52   46   48 1   
    53   53   54 1   
    54   53   57 1   
    55   54   55 1   
    56   54   58 1   
    57   54   59 1   
    58   55   56 2   
    59   55   60 1   
    60   60   61 1   
    61   60   68 1   
    62   61   62 1   
    63   61   64 1   
    64   61   69 1   
    65   62   63 2   
    66   62   72 1   
    67   64   65 1   
    68   64   70 1   
    69   64   71 1   
    70   65   66 1   
    71   65   67 1   
    72   72   73 1   
    73   72   76 1   
    74   73   74 1   
    75   73   77 1   
    76   73   78 1   
    77   74   75 2   
    78   74   79 1   
    79   79   80 1   
    80   79   86 1   
    81   80   81 1   
    82   80   83 1   
    83   80   87 1   
    84   81   82 2   
    85   81   93 1   
    86   83   84 1   
    87   83   85 1   
    88   83   88 1   
    89   84   90 1   
    90   84   91 1   
    91   84   92 1   
    92   85   89 1   
    93   93   94 1   
    94   93  101 1   
    95   94   95 1   
    96   94   97 1   
    97   94  102 1   
    98   95   96 2   
    99   95  112 1   
   100   97   98 1   
   101   97   99 1   
   102   97  103 1   
   103   98  100 1   
   104   98  104 1   
   105   98  105 1   
   106   99  106 1   
   107   99  107 1   
   108   99  108 1   
   109  100  109 1   
   110  100  110 1   
   111  100  111 1   
   112  112  113 1   
   113  112  119 1   
   114  113  114 1   
   115  113  116 1   
   116  113  120 1   
   117  114  115 2   
   118  114  126 1   
   119  116  117 1   
   120  116  118 1   
   121  116  121 1   
   122  117  123 1   
   123  117  124 1   
   124  117  125 1   
   125  118  122 1   
   126  126  127 1   
   127  126  133 1   
   128  127  128 1   
   129  127  130 1   
   130  127  134 1   
   131  128  129 2   
   132  128  140 1   
   133  130  131 1   
   134  130  132 1   
   135  130  135 1   
   136  131  137 1   
   137  131  138 1   
   138  131  139 1   
   139  132  136 1   
   140  140  141 1   
   141  140  149 1   
   142  141  142 1   
   143  141  144 1   
   144  141  150 1   
   145  142  143 2   
   146  142  162 1   
   147  144  145 1   
   148  144  151 1   
   149  144  152 1   
   150  145  146 1   
   151  145  153 1   
   152  145  154 1   
   153  146  147 1   
   154  146  155 1   
   155  146  156 1   
   156  147  148 1   
   157  147  157 1   
   158  147  158 1   
   159  148  159 1   
   160  148  160 1   
   161  148  161 1   
   162  162  163 1   
   163  162  171 1   
   164  163  164 1   
   165  163  166 1   
   166  163  172 1   
   167  164  165 2   
   168  164  177 1   
   169  166  167 1   
   170  166  173 1   
   171  166  174 1   
   172  167  168 1   
   173  167  175 1   
   174  167  176 1   
   175  168  169 1   
   176  168  170 1   
   177  177  178 1   
   178  177  182 1   
   179  178  179 1   
   180  178  180 1   
   181  178  181 1   
   182  184  185 1   
   183  184  186 1   
   184  187  188 1   
   185  187  189 1   
   186  190  191 1   
   187  190  192 1   
@<TRIPOS>SUBSTRUCTURE
     1 MOL         1 TEMP              0 ****  ****    0 ROOT
