@<TRIPOS>MOLECULE
MOL
  189   185     1     0     0
SMALL
resp


@<TRIPOS>ATOM
      1 C1         -6.8820   -3.2810    3.1850 c3        1 MOL      0.065974
      2 C2         -5.6370   -2.9820    2.4040 c         1 MOL      0.688453
      3 O1         -5.0100   -1.9600    2.6430 o         1 MOL     -0.527990
      4 H1         -7.7410   -3.2830    2.5130 hc        1 MOL     -0.054343
      5 H2         -6.7900   -4.2600    3.6560 hc        1 MOL     -0.054343
      6 H3         -7.0240   -2.5200    3.9520 hc        1 MOL     -0.054343
      7 N1         -5.4800   -3.7620    1.3260 n         1 MOL     -0.707189
      8 C3         -4.4290   -3.5810    0.2830 c3        1 MOL      0.040269
      9 C4         -2.9210   -3.6450    0.7520 c         1 MOL      0.616741
     10 O2         -1.9720   -3.1640    0.0440 o         1 MOL     -0.558950
     11 C5         -4.8530   -2.4910   -0.7650 c3        1 MOL     -0.549221
     12 C6         -6.2790   -2.8990   -1.2140 c         1 MOL      0.832595
     13 O3         -6.5400   -4.1380   -1.4790 o         1 MOL     -0.686273
     14 O4         -7.0280   -1.9300   -1.4990 o         1 MOL     -0.686273
     15 H4         -6.1610   -4.4930    1.2200 hn        1 MOL      0.325462
     16 H5         -4.4530   -4.5680   -0.1810 h1        1 MOL      0.107525
     17 H6         -4.2000   -2.5490   -1.6350 hc        1 MOL      0.189315
     18 H7         -4.7700   -1.5560   -0.2200 hc        1 MOL      0.189315
     19 N2         -2.7080   -4.2470    1.9070 n         1 MOL     -0.477823
     20 C7         -1.3350   -4.4420    2.5180 c3        1 MOL     -0.187999
     21 C8         -0.7870   -5.8030    2.0270 c         1 MOL      0.590625
     22 O5         -1.3690   -6.8630    2.4090 o         1 MOL     -0.594596
     23 C9         -1.4270   -4.4040    4.0260 c3        1 MOL     -0.152847
     24 C10        -2.1230   -3.0960    4.4910 c3        1 MOL      0.341718
     25 C11        -0.0010   -4.4180    4.6460 c3        1 MOL      0.032598
     26 C12        -2.3570   -2.8960    5.9820 c3        1 MOL     -0.493054
     27 H8         -3.4720   -4.6970    2.3920 hn        1 MOL      0.317601
     28 H9         -0.8100   -3.5550    2.1520 h1        1 MOL      0.186462
     29 H10        -1.9290   -5.2800    4.4590 hc        1 MOL      0.072733
     30 H11        -3.1460   -3.1020    4.1110 hc        1 MOL     -0.018346
     31 H12        -1.7360   -2.1670    4.0790 hc        1 MOL     -0.018346
     32 H13         0.0220   -4.8300    5.6550 hc        1 MOL     -0.002252
     33 H14         0.8050   -4.9130    4.1000 hc        1 MOL     -0.002252
     34 H15         0.3910   -3.4080    4.7880 hc        1 MOL     -0.002252
     35 H16        -3.2370   -2.2540    6.0250 hc        1 MOL      0.106296
     36 H17        -2.4890   -3.9170    6.3210 hc        1 MOL      0.106296
     37 H18        -1.5120   -2.3830    6.4330 hc        1 MOL      0.106296
     38 N3          0.3600   -5.9110    1.3010 n         1 MOL     -0.377647
     39 C13         1.1250   -4.8890    0.6080 c3        1 MOL      0.049475
     40 C14         1.7290   -5.3960   -0.7420 c         1 MOL      0.547694
     41 O6          1.7140   -6.5880   -0.9810 o         1 MOL     -0.550404
     42 C15         2.3170   -4.4150    1.5020 c3        1 MOL     -0.211949
     43 C16         3.0920   -3.1880    0.9560 c         1 MOL      0.726675
     44 O7          4.1800   -3.3140    0.3700 o         1 MOL     -0.682090
     45 O8          2.5760   -2.0440    1.0860 o         1 MOL     -0.682090
     46 H19         0.6870   -6.8510    1.1020 hn        1 MOL      0.258777
     47 H20         0.4850   -4.0130    0.5200 h1        1 MOL      0.032741
     48 H21         2.9390   -5.2960    1.6580 hc        1 MOL      0.039226
     49 H22         1.8980   -4.0550    2.4370 hc        1 MOL      0.039226
     50 N4          2.1170   -4.5520   -1.7020 n         1 MOL     -0.341868
     51 C17         2.4690   -4.9400   -3.1330 c3        1 MOL     -0.160545
     52 C18         3.7850   -4.3100   -3.6170 c         1 MOL      0.633219
     53 O9          4.2140   -4.5540   -4.7330 o         1 MOL     -0.603566
     54 H23         1.9200   -3.5640   -1.5480 hn        1 MOL      0.295584
     55 H24         1.6310   -4.7060   -3.7810 h1        1 MOL      0.101893
     56 H25         2.6090   -6.0260   -3.1600 h1        1 MOL      0.101893
     57 N5          4.4570   -3.4930   -2.7490 n         1 MOL     -0.405699
     58 C19         5.5390   -2.6280   -3.2790 c3        1 MOL      0.078067
     59 C20         6.7760   -2.5730   -2.3690 c         1 MOL      0.447042
     60 O10         7.9090   -2.5650   -2.8010 o         1 MOL     -0.587087
     61 C21         4.9990   -1.1780   -3.5870 c3        1 MOL     -0.239216
     62 C22         4.2130   -0.4020   -2.5200 c         1 MOL      0.850077
     63 O11         4.9120    0.0550   -1.5670 o         1 MOL     -0.702096
     64 O12         2.9990   -0.0850   -2.7380 o         1 MOL     -0.702096
     65 H26         4.1310   -3.4670   -1.7860 hn        1 MOL      0.166496
     66 H27         5.8950   -3.0920   -4.2050 h1        1 MOL      0.087485
     67 H28         4.2960   -1.1900   -4.4290 hc        1 MOL      0.035275
     68 H29         5.8400   -0.5370   -3.8570 hc        1 MOL      0.035275
     69 N6          6.6470   -2.6060   -1.0440 n         1 MOL     -0.266347
     70 C23         7.7720   -2.4050   -0.0810 c3        1 MOL     -0.154486
     71 C24         8.3020   -0.9530   -0.0470 c         1 MOL      0.560854
     72 O13         9.3100   -0.7280    0.5390 o         1 MOL     -0.596018
     73 H30         5.7140   -2.6310   -0.6530 hn        1 MOL      0.246192
     74 H31         8.5980   -3.0980   -0.2550 h1        1 MOL      0.089851
     75 H32         7.4850   -2.5010    0.9660 h1        1 MOL      0.089851
     76 N7          7.6320   -0.0100   -0.7870 n         1 MOL     -0.086599
     77 C25         7.9160    1.4290   -0.7870 c3        1 MOL     -0.064432
     78 C26         7.7140    2.1770    0.5580 c         1 MOL      0.546025
     79 O14         8.3320    3.1750    0.8240 o         1 MOL     -0.524186
     80 C27         9.2640    1.6800   -1.5020 c3        1 MOL      0.125321
     81 C28         9.2760    1.3730   -3.0400 c3        1 MOL     -0.333892
     82 C29        10.1550    2.3790   -3.8440 c         1 MOL      0.712194
     83 N8         11.3290    1.9830   -4.2920 n         1 MOL     -0.810162
     84 O15         9.8520    3.5340   -4.1570 o         1 MOL     -0.572038
     85 H33         6.7870   -0.3180   -1.2480 hn        1 MOL      0.117948
     86 H34         7.2260    1.7590   -1.5510 h1        1 MOL      0.113527
     87 H35        10.0570    1.1520   -0.9770 hc        1 MOL     -0.010673
     88 H36         9.3760    2.7560   -1.4130 hc        1 MOL     -0.010673
     89 H37         8.3020    1.2950   -3.5170 hc        1 MOL      0.090863
     90 H38         9.7640    0.3980   -3.0930 hc        1 MOL      0.090863
     91 H39        11.7310    1.0680   -4.1300 hn        1 MOL      0.337759
     92 H40        12.0240    2.5860   -4.7150 hn        1 MOL      0.337759
     93 N9          6.8570    1.5940    1.4080 n         1 MOL     -0.459166
     94 C30         6.6030    1.9670    2.8490 c3        1 MOL     -0.051181
     95 C31         5.1600    2.2320    3.1990 c         1 MOL      0.637531
     96 O16         4.8430    2.7180    4.2870 o         1 MOL     -0.591214
     97 C32         7.3300    1.0010    3.8990 c3        1 MOL      0.214171
     98 C33         6.8340   -0.4530    3.7910 c3        1 MOL     -0.200092
     99 C34         8.8450    1.1340    3.6900 c3        1 MOL     -0.200092
    100 H41         6.3410    0.7920    1.0740 hn        1 MOL      0.236254
    101 H42         7.0780    2.9350    3.0160 h1        1 MOL      0.094209
    102 H43         6.9660    1.3420    4.8600 hc        1 MOL     -0.040666
    103 H44         7.2370   -0.9480    2.9060 hc        1 MOL      0.041775
    104 H45         7.0450   -1.0660    4.6660 hc        1 MOL      0.041775
    105 H46         5.7500   -0.5260    3.6860 hc        1 MOL      0.041775
    106 H47         9.0900    2.1900    3.7970 hc        1 MOL      0.041775
    107 H48         9.3380    0.5460    4.4640 hc        1 MOL      0.041775
    108 H49         9.1110    0.7180    2.7160 hc        1 MOL      0.041775
    109 N10         4.2260    1.9560    2.2470 n         1 MOL     -0.536213
    110 C35         2.7940    2.0900    2.5510 c3        1 MOL      0.152546
    111 C36         2.0990    2.4810    1.2060 c         1 MOL      0.668775
    112 O17         2.8100    2.4650    0.1990 o         1 MOL     -0.548934
    113 C37         2.3160    0.7430    3.1220 c3        1 MOL     -0.360386
    114 C38         0.8460    0.4920    3.1030 c         1 MOL      0.710291
    115 N11         0.4210   -0.5990    2.4050 n         1 MOL     -0.867936
    116 O18         0.0400    1.1470    3.7390 o         1 MOL     -0.597264
    117 H50         4.4860    1.2130    1.6260 hn        1 MOL      0.326575
    118 H51         2.7380    2.8820    3.3000 h1        1 MOL      0.069579
    119 H52         2.6250    0.6650    4.1630 hc        1 MOL      0.123728
    120 H53         2.8350   -0.0390    2.5660 hc        1 MOL      0.123728
    121 H54         1.1160   -0.9910    1.7920 hn        1 MOL      0.397233
    122 H55        -0.5670   -0.7990    2.3640 hn        1 MOL      0.397233
    123 N12         0.8310    2.7670    1.2660 n         1 MOL     -0.793243
    124 C39        -0.0250    2.9480    0.0310 c3        1 MOL      0.396287
    125 C40        -1.2410    3.8320    0.2900 c         1 MOL      0.518638
    126 O19        -1.9960    3.4600    1.2700 o         1 MOL     -0.621377
    127 C41        -0.3590    1.5020   -0.3970 c3        1 MOL     -0.050267
    128 C42        -1.3720    1.3890   -1.5770 ca        1 MOL     -0.012464
    129 C43        -1.2700    2.1950   -2.7160 ca        1 MOL     -0.057398
    130 C44        -2.4620    0.5690   -1.3630 ca        1 MOL     -0.057398
    131 C45        -2.2970    2.1700   -3.6910 ca        1 MOL     -0.310290
    132 C46        -3.4300    0.4650   -2.3640 ca        1 MOL     -0.310290
    133 C47        -3.4030    1.2880   -3.5590 ca        1 MOL      0.355756
    134 O20        -4.3130    1.1860   -4.5740 oh        1 MOL     -0.591307
    135 H56         0.2930    2.8200    2.1200 hn        1 MOL      0.357157
    136 H57         0.5590    3.4630   -0.7440 h1        1 MOL     -0.012907
    137 H58        -0.7770    0.9430    0.4420 hc        1 MOL      0.066159
    138 H59         0.5520    1.0550   -0.8210 hc        1 MOL      0.066159
    139 H60        -0.3920    2.8140   -2.7880 ha        1 MOL      0.105009
    140 H61        -2.5340    0.0540   -0.4100 ha        1 MOL      0.105009
    141 H62        -2.3230    2.8980   -4.4850 ha        1 MOL      0.157594
    142 H63        -4.2260   -0.2380   -2.1260 ha        1 MOL      0.157594
    143 H64        -5.0870    0.6710   -4.3700 ho        1 MOL      0.462610
    144 N13        -1.4840    4.8580   -0.4850 n         1 MOL     -0.496698
    145 C48        -2.7450    5.5590   -0.3860 c3        1 MOL      0.080325
    146 C49        -3.5920    5.1380   -1.6700 c         1 MOL      0.633331
    147 O21        -3.3020    5.5290   -2.8010 o         1 MOL     -0.597991
    148 C50        -2.3920    7.0420   -0.2610 c3        1 MOL     -0.154598
    149 C51        -1.7560    7.3380    1.1380 c3        1 MOL     -0.064638
    150 C52        -1.5770    8.7980    1.4290 c         1 MOL      0.681325
    151 O22        -0.9770    9.5150    0.6040 o         1 MOL     -0.661796
    152 O23        -1.9120    9.2870    2.5740 o         1 MOL     -0.661796
    153 H65        -0.8350    5.0640   -1.2320 hn        1 MOL      0.311340
    154 H66        -3.2750    5.2600    0.5110 h1        1 MOL      0.184578
    155 H67        -3.2680    7.6630   -0.3940 hc        1 MOL      0.055099
    156 H68        -1.7090    7.2630   -1.0860 hc        1 MOL      0.055099
    157 H69        -0.7850    6.8450    1.3120 hc        1 MOL      0.019588
    158 H70        -2.4240    6.8990    1.8790 hc        1 MOL      0.019588
    159 N14        -4.6740    4.3730   -1.5960 n         1 MOL     -0.586126
    160 C53        -5.1210    3.5090   -0.4790 c3        1 MOL     -0.085981
    161 C54        -5.4920    4.1560    0.8640 c         1 MOL      0.289266
    162 O24        -6.1500    5.2170    0.8040 o         1 MOL     -0.521057
    163 C55        -6.3070    2.7920   -1.0860 c3        1 MOL      0.538600
    164 C56        -6.8800    1.5820   -0.2820 c3        1 MOL     -0.240228
    165 C57        -8.2370    1.0480   -0.6860 c         1 MOL      0.763068
    166 O25        -8.5730    1.0210   -1.9300 o         1 MOL     -0.768492
    167 O26        -9.0240    0.5090    0.1490 o         1 MOL     -0.768492
    168 H71        -4.9210    4.1180   -2.5360 hn        1 MOL      0.332871
    169 H72        -4.3690    2.7250   -0.3800 h1        1 MOL      0.007110
    170 H73        -5.9990    2.4850   -2.0770 hc        1 MOL     -0.093948
    171 H74        -7.1110    3.5090   -1.2640 hc        1 MOL     -0.093948
    172 H75        -6.9020    1.9000    0.7630 hc        1 MOL     -0.008834
    173 H76        -6.1610    0.7690   -0.3220 hc        1 MOL     -0.008834
    174 N15        -5.2120    3.5120    1.9970 n         1 MOL      0.003472
    175 C58        -5.3130    3.9300    3.3650 c3        1 MOL     -0.312895
    176 H77        -4.3140    3.9990    3.7980 h1        1 MOL      0.111047
    177 H78        -5.7970    4.9060    3.4120 h1        1 MOL      0.111047
    178 H79        -5.9020    3.2050    3.9260 h1        1 MOL      0.111047
    179 H80        -4.7680    2.6230    1.8390 hn        1 MOL      0.223569
    180 Ca1        -9.6890   -1.5830   -1.3230 Ca        1 MOL      1.555907
    181 O27       -11.9380   -0.2690   -2.4500 oh        1 MOL     -0.949320
    182 H81       -12.8270   -0.6350   -2.4600 ho        1 MOL      0.434966
    183 H82       -11.9650    0.4190   -3.1210 ho        1 MOL      0.434966
    184 O28        -9.1680   -3.9670   -2.1130 oh        1 MOL     -0.949320
    185 H83        -9.4250   -4.8090   -2.5040 ho        1 MOL      0.434966
    186 H84        -8.2170   -4.0390   -2.0180 ho        1 MOL      0.434966
    187 O29        -9.5730   -1.2980   -4.1180 oh        1 MOL     -0.949320
    188 H85       -10.0330   -0.4890   -4.3460 ho        1 MOL      0.434966
    189 H86        -9.4140   -1.7270   -4.9610 ho        1 MOL      0.434966
@<TRIPOS>BOND
     1    1    2 1   
     2    1    4 1   
     3    1    5 1   
     4    1    6 1   
     5    2    3 2   
     6    2    7 1   
     7    7    8 1   
     8    7   15 1   
     9    8    9 1   
    10    8   11 1   
    11    8   16 1   
    12    9   10 2   
    13    9   19 1   
    14   11   12 1   
    15   11   17 1   
    16   11   18 1   
    17   12   13 1   
    18   12   14 1   
    19   19   20 1   
    20   19   27 1   
    21   20   21 1   
    22   20   23 1   
    23   20   28 1   
    24   21   22 2   
    25   21   38 1   
    26   23   24 1   
    27   23   25 1   
    28   23   29 1   
    29   24   26 1   
    30   24   30 1   
    31   24   31 1   
    32   25   32 1   
    33   25   33 1   
    34   25   34 1   
    35   26   35 1   
    36   26   36 1   
    37   26   37 1   
    38   38   39 1   
    39   38   46 1   
    40   39   40 1   
    41   39   42 1   
    42   39   47 1   
    43   40   41 2   
    44   40   50 1   
    45   42   43 1   
    46   42   48 1   
    47   42   49 1   
    48   43   44 1   
    49   43   45 1   
    50   50   51 1   
    51   50   54 1   
    52   51   52 1   
    53   51   55 1   
    54   51   56 1   
    55   52   53 2   
    56   52   57 1   
    57   57   58 1   
    58   57   65 1   
    59   58   59 1   
    60   58   61 1   
    61   58   66 1   
    62   59   60 2   
    63   59   69 1   
    64   61   62 1   
    65   61   67 1   
    66   61   68 1   
    67   62   63 1   
    68   62   64 1   
    69   69   70 1   
    70   69   73 1   
    71   70   71 1   
    72   70   74 1   
    73   70   75 1   
    74   71   72 2   
    75   71   76 1   
    76   76   77 1   
    77   76   85 1   
    78   77   78 1   
    79   77   80 1   
    80   77   86 1   
    81   78   79 2   
    82   78   93 1   
    83   80   81 1   
    84   80   87 1   
    85   80   88 1   
    86   81   82 1   
    87   81   89 1   
    88   81   90 1   
    89   82   83 1   
    90   82   84 2   
    91   83   91 1   
    92   83   92 1   
    93   93   94 1   
    94   93  100 1   
    95   94   95 1   
    96   94   97 1   
    97   94  101 1   
    98   95   96 2   
    99   95  109 1   
   100   97   98 1   
   101   97   99 1   
   102   97  102 1   
   103   98  103 1   
   104   98  104 1   
   105   98  105 1   
   106   99  106 1   
   107   99  107 1   
   108   99  108 1   
   109  109  110 1   
   110  109  117 1   
   111  110  111 1   
   112  110  113 1   
   113  110  118 1   
   114  111  112 2   
   115  111  123 1   
   116  113  114 1   
   117  113  119 1   
   118  113  120 1   
   119  114  115 1   
   120  114  116 2   
   121  115  121 1   
   122  115  122 1   
   123  123  124 1   
   124  123  135 1   
   125  124  125 1   
   126  124  127 1   
   127  124  136 1   
   128  125  126 2   
   129  125  144 1   
   130  127  128 1   
   131  127  137 1   
   132  127  138 1   
   133  128  129 ar  
   134  128  130 ar  
   135  129  131 ar  
   136  129  139 1   
   137  130  132 ar  
   138  130  140 1   
   139  131  133 ar  
   140  131  141 1   
   141  132  133 ar  
   142  132  142 1   
   143  133  134 1   
   144  134  143 1   
   145  144  145 1   
   146  144  153 1   
   147  145  146 1   
   148  145  148 1   
   149  145  154 1   
   150  146  147 2   
   151  146  159 1   
   152  148  149 1   
   153  148  155 1   
   154  148  156 1   
   155  149  150 1   
   156  149  157 1   
   157  149  158 1   
   158  150  151 1   
   159  150  152 1   
   160  159  160 1   
   161  159  168 1   
   162  160  161 1   
   163  160  163 1   
   164  160  169 1   
   165  161  162 2   
   166  161  174 1   
   167  163  164 1   
   168  163  170 1   
   169  163  171 1   
   170  164  165 1   
   171  164  172 1   
   172  164  173 1   
   173  165  166 1   
   174  165  167 1   
   175  174  175 1   
   176  174  179 1   
   177  175  176 1   
   178  175  177 1   
   179  175  178 1   
   180  181  182 1   
   181  181  183 1   
   182  184  185 1   
   183  184  186 1   
   184  187  188 1   
   185  187  189 1   
@<TRIPOS>SUBSTRUCTURE
     1 MOL         1 TEMP              0 ****  ****    0 ROOT
