@<TRIPOS>MOLECULE
MOL
  182   178     1     0     0
SMALL
resp


@<TRIPOS>ATOM
      1 C1          1.8210   -5.5490    6.1040 c3        1 MOL     -0.411906
      2 C2          1.6320   -5.0300    4.6680 c         1 MOL      0.681440
      3 O1          0.7030   -5.4710    3.9630 o         1 MOL     -0.585231
      4 H1          2.0880   -6.6060    6.0750 hc        1 MOL      0.116229
      5 H2          2.6160   -4.9860    6.5920 hc        1 MOL      0.116229
      6 H3          0.8920   -5.4250    6.6600 hc        1 MOL      0.116229
      7 N1          2.4610   -4.0350    4.2540 n         1 MOL     -0.597040
      8 C3          2.4960   -3.4230    2.9470 c3        1 MOL      0.022569
      9 C4          2.9050   -4.5580    1.8720 c         1 MOL      0.627953
     10 O2          3.9500   -5.2190    2.0300 o         1 MOL     -0.547371
     11 C5          3.5450   -2.2760    2.9290 c3        1 MOL     -0.389038
     12 C6          3.3230   -1.3900    1.6660 c         1 MOL      0.617856
     13 O3          3.7740   -0.2180    1.7120 o         1 MOL     -0.690327
     14 O4          2.9110   -1.7800    0.5620 o         1 MOL     -0.690327
     15 H4          3.1140   -3.7080    4.9560 hn        1 MOL      0.330269
     16 H5          1.5370   -2.9770    2.7210 h1        1 MOL      0.227187
     17 H6          4.5540   -2.5940    2.7100 hc        1 MOL      0.154964
     18 H7          3.4260   -1.6210    3.7930 hc        1 MOL      0.154964
     19 N2          2.0830   -4.7120    0.8640 n         1 MOL     -0.402808
     20 C7          2.3370   -5.6720   -0.1950 c3        1 MOL     -0.005699
     21 C8          3.4540   -5.4120   -1.1430 c         1 MOL      0.476157
     22 O5          3.8960   -6.3380   -1.8220 o         1 MOL     -0.545656
     23 C9          1.0280   -5.9530   -0.9390 c3        1 MOL      0.028042
     24 C10         0.5020   -4.6440   -1.7960 c3        1 MOL      0.047508
     25 C11        -0.8080   -4.9670   -2.5050 c3        1 MOL     -0.051503
     26 C12        -0.7420   -6.2740   -3.2930 c3        1 MOL      0.104908
     27 N3         -1.9070   -6.4940   -4.1170 n4        1 MOL     -0.216268
     28 H8          1.3490   -4.0230    0.7720 hn        1 MOL      0.219973
     29 H9          2.6120   -6.6430    0.2230 h1        1 MOL      0.102417
     30 H10         0.3240   -6.3420   -0.2040 hc        1 MOL      0.011136
     31 H11         1.2630   -6.7250   -1.6660 hc        1 MOL      0.011136
     32 H12         1.2170   -4.3150   -2.5460 hc        1 MOL      0.026749
     33 H13         0.2850   -3.7670   -1.1840 hc        1 MOL      0.026749
     34 H14        -1.0620   -4.1370   -3.1610 hc        1 MOL      0.011093
     35 H15        -1.5950   -4.9670   -1.7590 hc        1 MOL      0.011093
     36 H16        -0.7390   -7.0550   -2.5230 hx        1 MOL      0.046176
     37 H17         0.1220   -6.3360   -3.9540 hx        1 MOL      0.046176
     38 H18        -2.7840   -6.1350   -3.7670 hn        1 MOL      0.235455
     39 H19        -1.7900   -5.9330   -4.9450 hn        1 MOL      0.235455
     40 H20        -1.9210   -7.4890   -4.3180 hn        1 MOL      0.235455
     41 N4          3.9060   -4.1490   -1.3430 n         1 MOL     -0.296551
     42 C13         4.9640   -3.8240   -2.2880 c3        1 MOL      0.108848
     43 C14         6.0900   -2.9910   -1.5740 c         1 MOL      0.425462
     44 O6          7.0900   -2.7670   -2.1670 o         1 MOL     -0.529258
     45 C15         4.3410   -3.1030   -3.4980 c3        1 MOL     -0.330302
     46 C16         3.7900   -1.6810   -3.2980 c         1 MOL      0.865284
     47 O7          3.9110   -1.0620   -2.1930 o         1 MOL     -0.742469
     48 O8          3.3790   -1.0880   -4.3590 o         1 MOL     -0.742469
     49 H21         3.4530   -3.3950   -0.8420 hn        1 MOL      0.128811
     50 H22         5.4060   -4.7890   -2.5620 h1        1 MOL      0.098816
     51 H23         3.4920   -3.7200   -3.8140 hc        1 MOL      0.084034
     52 H24         5.1580   -3.0570   -4.2110 hc        1 MOL      0.084034
     53 N5          5.8950   -2.6290   -0.3160 n         1 MOL     -0.115157
     54 C17         6.8620   -1.9260    0.4800 c3        1 MOL     -0.260301
     55 C18         7.1390   -0.4730    0.0450 c         1 MOL      0.626306
     56 O9          8.0660    0.0350    0.5810 o         1 MOL     -0.559900
     57 H25         4.9650   -2.7690    0.0520 hn        1 MOL      0.080643
     58 H26         7.8020   -2.4750    0.4020 h1        1 MOL      0.129501
     59 H27         6.6360   -1.9450    1.5500 h1        1 MOL      0.129501
     60 N6          6.3790    0.0950   -0.8590 n         1 MOL     -0.311785
     61 C19         6.5970    1.5070   -1.3800 c3        1 MOL      0.237862
     62 C20         5.4510    2.4950   -0.9970 c         1 MOL      0.574122
     63 O10         4.3140    2.0890   -0.7410 o         1 MOL     -0.620420
     64 C21         6.8510    1.5360   -2.9310 c3        1 MOL     -0.453616
     65 C22         7.1780    2.8810   -3.5200 c         1 MOL      0.697760
     66 N7          6.4270    3.2700   -4.4790 n         1 MOL     -0.742814
     67 O11         8.0110    3.7070   -3.1270 o         1 MOL     -0.598004
     68 H28         5.6340   -0.4250   -1.3080 hn        1 MOL      0.207987
     69 H29         7.4630    1.7770   -0.7750 h1        1 MOL     -0.009778
     70 H30         6.0110    1.1510   -3.4940 hc        1 MOL      0.150337
     71 H31         7.7760    1.0410   -3.2590 hc        1 MOL      0.150337
     72 H32         5.8040    2.5850   -4.8920 hn        1 MOL      0.351371
     73 H33         6.6550    4.1260   -4.9490 hn        1 MOL      0.351371
     74 N8          5.7690    3.7690   -0.9490 n         1 MOL     -0.361269
     75 C23         4.7760    4.8060   -0.8590 c3        1 MOL     -0.124815
     76 C24         3.9980    4.7650    0.5150 c         1 MOL      0.600087
     77 O12         4.6180    4.5350    1.5710 o         1 MOL     -0.491227
     78 H34         6.7040    4.1200   -1.1170 hn        1 MOL      0.307488
     79 H35         4.1010    4.7300   -1.7050 h1        1 MOL      0.089117
     80 H36         5.2520    5.7720   -0.7810 h1        1 MOL      0.089117
     81 N9          2.6460    4.9310    0.4090 n         1 MOL     -0.631049
     82 C25         1.6160    4.7290    1.4620 c3        1 MOL      0.290744
     83 C26         1.3140    3.2340    1.7710 c         1 MOL      0.417531
     84 O13         1.9390    2.3930    1.0740 o         1 MOL     -0.360550
     85 C27         0.3350    5.4700    0.9500 c3        1 MOL     -0.385708
     86 C28         0.5250    6.8770    0.3610 ca        1 MOL      0.101529
     87 C29         0.9640    7.8900    1.2270 ca        1 MOL     -0.125543
     88 C30         0.1000    7.3330   -0.9490 ca        1 MOL     -0.125543
     89 C31         1.0650    9.2450    0.8670 ca        1 MOL     -0.283338
     90 C32         0.2930    8.6310   -1.3490 ca        1 MOL     -0.283338
     91 C33         0.7250    9.6030   -0.4570 ca        1 MOL      0.372719
     92 O14         0.8910   10.8870   -0.9400 oh        1 MOL     -0.520939
     93 H37         2.2100    5.0360   -0.4870 hn        1 MOL      0.311570
     94 H38         1.9940    5.1410    2.3910 h1        1 MOL      0.059271
     95 H39        -0.3130    5.5300    1.8370 hc        1 MOL      0.108901
     96 H40        -0.0830    4.7700    0.2340 hc        1 MOL      0.108901
     97 H41         1.0960    7.6270    2.2660 ha        1 MOL      0.122589
     98 H42        -0.3460    6.6130   -1.6190 ha        1 MOL      0.122589
     99 H43         1.4200    9.9620    1.5840 ha        1 MOL      0.164483
    100 H44         0.0460    8.9240   -2.3590 ha        1 MOL      0.164483
    101 H45         1.0420   11.6070   -0.3190 ho        1 MOL      0.394591
    102 N10         0.3810    2.8770    2.7150 n         1 MOL     -0.528399
    103 C34         0.0040    1.5430    3.1920 c3        1 MOL     -0.246292
    104 C35        -0.1500    0.4540    2.0800 c         1 MOL      0.770437
    105 O15         0.7960    0.0500    1.4660 o         1 MOL     -0.503078
    106 C36         0.8120    1.1120    4.4850 c3        1 MOL      0.108244
    107 C37         0.2830    1.8890    5.7250 c3        1 MOL     -0.162173
    108 C38         2.2830    1.3100    4.3110 c3        1 MOL     -0.356189
    109 C39         0.6030    1.1020    7.0240 c3        1 MOL     -0.192170
    110 H46        -0.0990    3.6250    3.1980 hn        1 MOL      0.325095
    111 H47        -1.0130    1.7340    3.5550 h1        1 MOL      0.115551
    112 H48         0.6650    0.0500    4.6990 hc        1 MOL      0.021727
    113 H49        -0.7850    2.0680    5.5890 hc        1 MOL      0.076847
    114 H50         0.7190    2.8890    5.7990 hc        1 MOL      0.076847
    115 H51         2.5010    2.3680    4.4750 hc        1 MOL      0.125250
    116 H52         2.7650    0.7920    5.1340 hc        1 MOL      0.125250
    117 H53         2.5190    1.0450    3.2750 hc        1 MOL      0.125250
    118 H54        -0.0650    0.2780    7.3070 hc        1 MOL      0.066624
    119 H55         1.6490    0.8250    7.1390 hc        1 MOL      0.066624
    120 H56         0.3250    1.8050    7.8150 hc        1 MOL      0.066624
    121 N11        -1.2710   -0.2600    2.2340 n         1 MOL     -0.640466
    122 C40        -1.5600   -1.5320    1.4480 c3        1 MOL      0.366579
    123 C41        -3.0630   -1.5540    0.9400 c         1 MOL      0.440215
    124 O16        -3.7150   -2.5930    0.8390 o         1 MOL     -0.531651
    125 C42        -1.1760   -2.6770    2.3220 c3        1 MOL      0.250551
    126 O17        -0.6180   -3.5820    1.4010 oh        1 MOL     -0.739031
    127 H57        -2.0260    0.1500    2.7500 hn        1 MOL      0.281452
    128 H58        -0.9560   -1.3970    0.5560 h1        1 MOL     -0.020500
    129 H59        -2.0070   -3.1350    2.8540 h1        1 MOL      0.001965
    130 H60        -0.3830   -2.3940    3.0110 h1        1 MOL      0.001965
    131 H61        -0.9650   -4.4360    1.6710 ho        1 MOL      0.458478
    132 N12        -3.7410   -0.4200    0.8710 n         1 MOL     -0.541448
    133 C43        -5.1470   -0.2990    0.3300 c3        1 MOL      0.415743
    134 C44        -5.1730    0.3130   -1.0690 c         1 MOL      0.456198
    135 O18        -4.2380    1.0920   -1.3500 o         1 MOL     -0.551809
    136 C45        -6.0990    0.4480    1.3620 c3        1 MOL     -0.406084
    137 H62        -3.2660    0.4690    0.8890 hn        1 MOL      0.251893
    138 H63        -5.5490   -1.3120    0.2520 h1        1 MOL      0.041327
    139 H64        -6.1780   -0.1020    2.3020 hc        1 MOL      0.121285
    140 H65        -5.7520    1.4740    1.4970 hc        1 MOL      0.121285
    141 H66        -7.0810    0.4540    0.8950 hc        1 MOL      0.121285
    142 N13        -6.1550    0.1090   -1.9710 n         1 MOL     -0.595544
    143 C46        -7.2990   -0.7710   -1.8830 c3        1 MOL      0.369632
    144 C47        -8.5900   -0.2610   -2.5810 c         1 MOL      0.316487
    145 O19        -8.4090    0.2380   -3.7100 o         1 MOL     -0.534449
    146 C48        -6.9750   -2.1020   -2.4550 c3        1 MOL     -0.312799
    147 H67        -6.0070    0.5690   -2.8480 hn        1 MOL      0.349459
    148 H68        -7.5290   -0.9090   -0.8250 h1        1 MOL     -0.031188
    149 H69        -7.7970   -2.7700   -2.1850 hc        1 MOL      0.084653
    150 H70        -6.8140   -2.0260   -3.5300 hc        1 MOL      0.084653
    151 H71        -6.0020   -2.4160   -2.0580 hc        1 MOL      0.084653
    152 N14        -9.7670   -0.1060   -1.9820 n         1 MOL     -0.149943
    153 C49       -10.0930   -0.5490   -0.6690 c3        1 MOL     -0.432585
    154 C50        -9.7110    0.4160    0.4660 c         1 MOL      0.504979
    155 O20        -9.6130   -0.0210    1.6380 o         1 MOL     -0.496534
    156 C51       -11.6350   -0.8470   -0.5930 c3        1 MOL      0.194290
    157 C52       -12.4460    0.3430   -0.2700 c3        1 MOL     -0.256261
    158 C53       -13.9190    0.3100   -0.6110 c         1 MOL      0.639579
    159 O21       -14.2850    0.4310   -1.7900 o         1 MOL     -0.636601
    160 O22       -14.7730    0.0570    0.2970 o         1 MOL     -0.636601
    161 H72       -10.4820    0.2640   -2.5890 hn        1 MOL      0.270168
    162 H73        -9.5370   -1.4810   -0.6080 h1        1 MOL      0.164046
    163 H74       -11.8910   -1.6500    0.1100 hc        1 MOL      0.019636
    164 H75       -11.8990   -1.2470   -1.5730 hc        1 MOL      0.019636
    165 H76       -11.9300    1.1980   -0.6970 hc        1 MOL      0.069545
    166 H77       -12.4620    0.4940    0.8100 hc        1 MOL      0.069545
    167 N15        -9.4870    1.7000    0.0900 n         1 MOL     -0.294400
    168 C54        -9.0160    2.7660    1.0400 c3        1 MOL     -0.287592
    169 H78        -9.6420    3.6510    0.9300 h1        1 MOL      0.128128
    170 H79        -9.0850    2.3980    2.0630 h1        1 MOL      0.128128
    171 H80        -7.9820    3.0230    0.8140 h1        1 MOL      0.128128
    172 H81        -9.7740    1.9730   -0.8390 hn        1 MOL      0.269827
    173 Ca1         2.2380    0.2950   -0.6800 Ca        1 MOL      1.725919
    174 O23         0.0970    2.0940   -1.1780 oh        1 MOL     -0.876867
    175 H82         0.5670    2.6800   -1.7560 ho        1 MOL      0.413726
    176 H83        -0.8250    2.3380   -1.2790 ho        1 MOL      0.413726
    177 O24         0.6170   -1.3650   -2.0390 oh        1 MOL     -0.876867
    178 H84         0.4620   -1.5480   -2.9620 ho        1 MOL      0.413726
    179 H85        -0.2480   -1.2190   -1.6730 ho        1 MOL      0.413726
    180 O25         2.2280    1.2010   -3.4350 oh        1 MOL     -0.876867
    181 H86         2.8040    0.6160   -3.9220 ho        1 MOL      0.413726
    182 H87         1.3690    1.0820   -3.8490 ho        1 MOL      0.413726
@<TRIPOS>BOND
     1    1    2 1   
     2    1    4 1   
     3    1    5 1   
     4    1    6 1   
     5    2    3 2   
     6    2    7 1   
     7    7    8 1   
     8    7   15 1   
     9    8    9 1   
    10    8   11 1   
    11    8   16 1   
    12    9   10 2   
    13    9   19 1   
    14   11   12 1   
    15   11   17 1   
    16   11   18 1   
    17   12   13 1   
    18   12   14 1   
    19   19   20 1   
    20   19   28 1   
    21   20   21 1   
    22   20   23 1   
    23   20   29 1   
    24   21   22 2   
    25   21   41 1   
    26   23   24 1   
    27   23   30 1   
    28   23   31 1   
    29   24   25 1   
    30   24   32 1   
    31   24   33 1   
    32   25   26 1   
    33   25   34 1   
    34   25   35 1   
    35   26   27 1   
    36   26   36 1   
    37   26   37 1   
    38   27   38 1   
    39   27   39 1   
    40   27   40 1   
    41   41   42 1   
    42   41   49 1   
    43   42   43 1   
    44   42   45 1   
    45   42   50 1   
    46   43   44 2   
    47   43   53 1   
    48   45   46 1   
    49   45   51 1   
    50   45   52 1   
    51   46   47 1   
    52   46   48 1   
    53   53   54 1   
    54   53   57 1   
    55   54   55 1   
    56   54   58 1   
    57   54   59 1   
    58   55   56 2   
    59   55   60 1   
    60   60   61 1   
    61   60   68 1   
    62   61   62 1   
    63   61   64 1   
    64   61   69 1   
    65   62   63 2   
    66   62   74 1   
    67   64   65 1   
    68   64   70 1   
    69   64   71 1   
    70   65   66 1   
    71   65   67 2   
    72   66   72 1   
    73   66   73 1   
    74   74   75 1   
    75   74   78 1   
    76   75   76 1   
    77   75   79 1   
    78   75   80 1   
    79   76   77 2   
    80   76   81 1   
    81   81   82 1   
    82   81   93 1   
    83   82   83 1   
    84   82   85 1   
    85   82   94 1   
    86   83   84 2   
    87   83  102 1   
    88   85   86 1   
    89   85   95 1   
    90   85   96 1   
    91   86   87 ar  
    92   86   88 ar  
    93   87   89 ar  
    94   87   97 1   
    95   88   90 ar  
    96   88   98 1   
    97   89   91 ar  
    98   89   99 1   
    99   90   91 ar  
   100   90  100 1   
   101   91   92 1   
   102   92  101 1   
   103  102  103 1   
   104  102  110 1   
   105  103  104 1   
   106  103  106 1   
   107  103  111 1   
   108  104  105 2   
   109  104  121 1   
   110  106  107 1   
   111  106  108 1   
   112  106  112 1   
   113  107  109 1   
   114  107  113 1   
   115  107  114 1   
   116  108  115 1   
   117  108  116 1   
   118  108  117 1   
   119  109  118 1   
   120  109  119 1   
   121  109  120 1   
   122  121  122 1   
   123  121  127 1   
   124  122  123 1   
   125  122  125 1   
   126  122  128 1   
   127  123  124 2   
   128  123  132 1   
   129  125  126 1   
   130  125  129 1   
   131  125  130 1   
   132  126  131 1   
   133  132  133 1   
   134  132  137 1   
   135  133  134 1   
   136  133  136 1   
   137  133  138 1   
   138  134  135 2   
   139  134  142 1   
   140  136  139 1   
   141  136  140 1   
   142  136  141 1   
   143  142  143 1   
   144  142  147 1   
   145  143  144 1   
   146  143  146 1   
   147  143  148 1   
   148  144  145 2   
   149  144  152 1   
   150  146  149 1   
   151  146  150 1   
   152  146  151 1   
   153  152  153 1   
   154  152  161 1   
   155  153  154 1   
   156  153  156 1   
   157  153  162 1   
   158  154  155 2   
   159  154  167 1   
   160  156  157 1   
   161  156  163 1   
   162  156  164 1   
   163  157  158 1   
   164  157  165 1   
   165  157  166 1   
   166  158  159 1   
   167  158  160 1   
   168  167  168 1   
   169  167  172 1   
   170  168  169 1   
   171  168  170 1   
   172  168  171 1   
   173  174  175 1   
   174  174  176 1   
   175  177  178 1   
   176  177  179 1   
   177  180  181 1   
   178  180  182 1   
@<TRIPOS>SUBSTRUCTURE
     1 MOL         1 TEMP              0 ****  ****    0 ROOT
