@<TRIPOS>MOLECULE
MOL
  188   182     1     0     0
SMALL
resp


@<TRIPOS>ATOM
      1 C1         -5.8630    0.7780    5.9030 c3        1 MOL     -0.487896
      2 C2         -5.3870    0.3760    4.4800 c         1 MOL      0.625729
      3 O1         -4.1720    0.3040    4.2970 o         1 MOL     -0.583777
      4 H1         -5.8340    1.8630    6.0020 hc        1 MOL      0.128568
      5 H2         -6.8830    0.4260    6.0580 hc        1 MOL      0.128568
      6 H3         -5.2050    0.3290    6.6470 hc        1 MOL      0.128568
      7 N1         -6.1910    0.2860    3.4220 n         1 MOL     -0.474892
      8 C3         -5.6460   -0.1110    2.1030 c3        1 MOL      0.034742
      9 C4         -4.8280    0.9500    1.3490 c         1 MOL      0.288331
     10 O2         -3.8140    0.5480    0.7670 o         1 MOL     -0.430288
     11 C5         -6.6760   -0.7360    1.1730 c3        1 MOL     -0.063875
     12 C6         -7.9450    0.0940    1.1760 c         1 MOL      0.617458
     13 O3         -7.9120    1.2940    1.5500 o         1 MOL     -0.661214
     14 O4         -8.9820   -0.4530    0.6880 o         1 MOL     -0.661214
     15 H4         -7.1250    0.6330    3.5750 hn        1 MOL      0.284665
     16 H5         -4.9190   -0.9070    2.2700 h1        1 MOL      0.111556
     17 H6         -6.9610   -1.7300    1.5170 hc        1 MOL      0.052851
     18 H7         -6.3890   -0.6840    0.1220 hc        1 MOL      0.052851
     19 N2         -5.1520    2.2470    1.4670 n         1 MOL     -0.218006
     20 C7         -4.3550    3.4290    1.2080 c3        1 MOL      0.040118
     21 C8         -4.3610    3.7540   -0.2850 c         1 MOL      0.410211
     22 O5         -4.7460    4.8600   -0.6920 o         1 MOL     -0.528520
     23 C9         -4.9830    4.5350    2.0620 c3        1 MOL      0.064090
     24 C10        -4.1430    5.7880    2.2390 c3        1 MOL     -0.360848
     25 C11        -4.8060    7.0170    2.8310 c3        1 MOL      0.227885
     26 C12        -5.1750    6.9020    4.3030 c3        1 MOL     -0.036509
     27 N3         -5.2420    8.2020    5.0110 n4        1 MOL     -0.234810
     28 H8         -6.0360    2.4060    1.9410 hn        1 MOL      0.197260
     29 H9         -3.3100    3.3500    1.4970 h1        1 MOL      0.136189
     30 H10        -5.1300    4.1570    3.0800 hc        1 MOL      0.028717
     31 H11        -6.0170    4.7380    1.7670 hc        1 MOL      0.028717
     32 H12        -3.7710    6.1670    1.2810 hc        1 MOL      0.103884
     33 H13        -3.2630    5.7630    2.8760 hc        1 MOL      0.103884
     34 H14        -5.6320    7.4050    2.2390 hc        1 MOL     -0.005094
     35 H15        -4.0500    7.8000    2.8110 hc        1 MOL     -0.005094
     36 H16        -4.4880    6.2220    4.8010 hx        1 MOL      0.079012
     37 H17        -6.1800    6.4940    4.3910 hx        1 MOL      0.079012
     38 H18        -5.6650    9.0100    4.5600 hn        1 MOL      0.275894
     39 H19        -5.6630    8.1180    5.9240 hn        1 MOL      0.275894
     40 H20        -4.3010    8.5430    5.1630 hn        1 MOL      0.275894
     41 N4         -3.9320    2.7870   -1.1160 n         1 MOL     -0.165464
     42 C13        -4.1330    2.9020   -2.5290 c3        1 MOL      0.048279
     43 C14        -4.6550    1.5550   -3.0770 c         1 MOL      0.408337
     44 O6         -4.1610    0.5060   -2.6620 o         1 MOL     -0.368153
     45 C15        -2.7030    3.3540   -3.0660 c3        1 MOL     -0.368537
     46 C16        -1.5240    2.5220   -2.4960 c         1 MOL      0.758869
     47 O7         -0.8160    1.7170   -3.2390 o         1 MOL     -0.752065
     48 O8         -1.2090    2.6740   -1.3050 o         1 MOL     -0.752065
     49 H21        -3.7410    1.8650   -0.7530 hn        1 MOL      0.153708
     50 H22        -4.8390    3.7080   -2.7450 h1        1 MOL      0.057454
     51 H23        -2.5070    4.3870   -2.7650 hc        1 MOL      0.113305
     52 H24        -2.6800    3.4490   -4.1500 hc        1 MOL      0.113305
     53 N5         -5.4190    1.5100   -4.1750 n         1 MOL     -0.385629
     54 C17        -6.0180    0.2620   -4.5920 c3        1 MOL      0.002409
     55 C18        -7.2210   -0.1520   -3.7440 c         1 MOL      0.554551
     56 O9         -8.2390    0.5510   -3.8600 o         1 MOL     -0.562599
     57 H25        -5.6260    2.3390   -4.7190 hn        1 MOL      0.314494
     58 H26        -5.2530   -0.5120   -4.5530 h1        1 MOL      0.035246
     59 H27        -6.4030    0.2650   -5.6060 h1        1 MOL      0.035246
     60 N6         -7.3330   -1.2970   -3.1100 n         1 MOL     -0.508816
     61 C19        -6.2210   -2.2580   -2.9130 c3        1 MOL      0.258056
     62 C20        -6.2590   -3.0410   -1.5530 c         1 MOL      0.301824
     63 O10        -7.3270   -3.4180   -1.1270 o         1 MOL     -0.441348
     64 C21        -6.1850   -3.3190   -4.0340 c3        1 MOL     -0.306774
     65 C22        -7.5940   -3.9630   -4.1390 c         1 MOL      0.650640
     66 N7         -8.5280   -3.4590   -4.9470 n         1 MOL     -0.816146
     67 O11        -7.8440   -5.0030   -3.5560 o         1 MOL     -0.510659
     68 H28        -8.2030   -1.5510   -2.6660 hn        1 MOL      0.361022
     69 H29        -5.2590   -1.7590   -3.0320 h1        1 MOL      0.076286
     70 H30        -5.4090   -4.0490   -3.7980 hc        1 MOL      0.086061
     71 H31        -5.7770   -2.9020   -4.9460 hc        1 MOL      0.086061
     72 H32        -8.3410   -2.7050   -5.5960 hn        1 MOL      0.371834
     73 H33        -9.4640   -3.7350   -4.7080 hn        1 MOL      0.371834
     74 N8         -5.1490   -3.3710   -0.8340 n         1 MOL     -0.376292
     75 C23        -3.8360   -2.7410   -0.8140 c3        1 MOL     -0.083632
     76 C24        -2.8040   -3.1590    0.2280 c         1 MOL      0.697864
     77 O12        -3.2230   -3.9060    1.1220 o         1 MOL     -0.568224
     78 H34        -5.4170   -3.9780   -0.0680 hn        1 MOL      0.293438
     79 H35        -3.9970   -1.6610   -0.7220 h1        1 MOL      0.038970
     80 H36        -3.4360   -2.9710   -1.8010 h1        1 MOL      0.038970
     81 N9         -1.5290   -2.8390    0.1960 n         1 MOL     -0.620194
     82 C25        -0.4780   -3.1850    1.1510 c3        1 MOL      0.178593
     83 C26         0.7980   -2.2730    1.0730 c         1 MOL      0.580315
     84 O13         0.8650   -1.2440    0.3750 o         1 MOL     -0.565778
     85 C27        -0.0280   -4.6810    0.8600 c3        1 MOL     -0.229384
     86 C28         0.7740   -5.3670    1.9420 ca        1 MOL      0.022750
     87 C29         1.8950   -6.1330    1.5860 ca        1 MOL     -0.071864
     88 C30         0.3480   -5.3810    3.3090 ca        1 MOL     -0.071864
     89 C31         2.5550   -6.8950    2.5240 ca        1 MOL     -0.325639
     90 C32         1.0050   -6.1670    4.2760 ca        1 MOL     -0.325639
     91 C33         2.1100   -6.9140    3.8430 ca        1 MOL      0.407993
     92 O14         2.6850   -7.6810    4.7630 oh        1 MOL     -0.503124
     93 H37        -1.3350   -2.0500   -0.4010 hn        1 MOL      0.308484
     94 H38        -0.8450   -3.0470    2.1700 h1        1 MOL      0.061915
     95 H39         0.4080   -4.7220   -0.1350 hc        1 MOL      0.114099
     96 H40        -0.9680   -5.2270    0.7990 hc        1 MOL      0.114099
     97 H41         2.2870   -6.1600    0.5840 ha        1 MOL      0.125928
     98 H42        -0.5510   -4.8460    3.5610 ha        1 MOL      0.125928
     99 H43         3.3490   -7.6000    2.3070 ha        1 MOL      0.162714
    100 H44         0.6150   -6.1810    5.2790 ha        1 MOL      0.162714
    101 H45         2.3150   -7.3960    5.5930 ho        1 MOL      0.365231
    102 N10         1.7530   -2.4740    1.9490 n         1 MOL     -0.354388
    103 C34         3.0990   -1.8670    2.0230 c3        1 MOL      0.041534
    104 C35         4.0180   -2.3830    0.8680 c         1 MOL      0.444083
    105 O15         3.7090   -3.4140    0.2780 o         1 MOL     -0.475722
    106 C36         3.7010   -1.9440    3.4760 c3        1 MOL      0.455300
    107 C37         3.1800   -0.7740    4.3260 c3        1 MOL     -0.204153
    108 C38         3.3840   -3.2930    4.0230 c3        1 MOL     -0.283452
    109 C39         3.7370   -0.7190    5.7490 c3        1 MOL     -0.106006
    110 H46         1.6590   -3.3010    2.5190 hn        1 MOL      0.090984
    111 H47         2.9500   -0.7970    1.8410 h1        1 MOL     -0.045738
    112 H48         4.7890   -1.9470    3.4100 hc        1 MOL     -0.074780
    113 H49         2.0940   -0.8020    4.3910 hc        1 MOL      0.074119
    114 H50         3.4880    0.1150    3.7770 hc        1 MOL      0.074119
    115 H51         3.7720   -4.0790    3.3780 hc        1 MOL      0.056520
    116 H52         4.0240   -3.3210    4.9090 hc        1 MOL      0.056520
    117 H53         2.3170   -3.3750    4.2270 hc        1 MOL      0.056520
    118 H54         3.0960   -1.2620    6.4500 hc        1 MOL      0.030529
    119 H55         4.6860   -1.2560    5.7750 hc        1 MOL      0.030529
    120 H56         3.8890    0.2630    6.1880 hc        1 MOL      0.030529
    121 N11         5.2000   -1.6550    0.7640 n         1 MOL     -0.310898
    122 C40         6.2990   -2.0730   -0.1430 c3        1 MOL     -0.010901
    123 C41         6.5280   -1.3210   -1.4710 c         1 MOL      0.488885
    124 O16         5.9120   -0.3290   -1.7350 o         1 MOL     -0.349286
    125 C42         7.5590   -1.8560    0.7210 c3        1 MOL     -0.021603
    126 O17         7.7550   -0.4410    0.8910 oh        1 MOL     -0.508633
    127 H57         5.3220   -0.8830    1.4050 hn        1 MOL      0.243771
    128 H58         6.2930   -3.1550   -0.2080 h1        1 MOL      0.089863
    129 H59         8.4640   -2.2150    0.2280 h1        1 MOL      0.066656
    130 H60         7.4290   -2.4240    1.6440 h1        1 MOL      0.066656
    131 H61         8.5750   -0.3190    1.3670 ho        1 MOL      0.408842
    132 N12         7.4000   -1.8840   -2.2790 n         1 MOL     -0.526929
    133 C43         7.8980   -1.3820   -3.5670 c3        1 MOL      0.116271
    134 C44         8.4900   -0.0270   -3.3690 c         1 MOL      0.409505
    135 O18         8.0660    1.0130   -3.9620 o         1 MOL     -0.443674
    136 C45         6.8270   -1.5560   -4.6630 c3        1 MOL     -0.175248
    137 H62         7.8420   -2.7370   -1.9650 hn        1 MOL      0.312047
    138 H63         8.6690   -2.0710   -3.9110 h1        1 MOL      0.084617
    139 H64         5.8780   -1.0610   -4.4240 hc        1 MOL      0.069859
    140 H65         7.2120   -1.1360   -5.5940 hc        1 MOL      0.069859
    141 H66         6.6310   -2.5980   -4.9200 hc        1 MOL      0.069859
    142 N13         9.2450    0.2120   -2.2420 n         1 MOL     -0.535619
    143 C46         9.8500    1.4550   -1.8450 c3        1 MOL      0.386051
    144 C47         8.7750    2.4930   -1.3540 c         1 MOL      0.216574
    145 O19         9.1020    3.6820   -1.3400 o         1 MOL     -0.469178
    146 C48        10.9040    1.9080   -2.9450 c3        1 MOL     -0.328802
    147 H67         9.4740   -0.5880   -1.6780 hn        1 MOL      0.274748
    148 H68        10.4420    1.2210   -0.9660 h1        1 MOL     -0.020089
    149 H69        11.6650    1.1280   -3.0400 hc        1 MOL      0.096293
    150 H70        10.3660    1.9200   -3.8950 hc        1 MOL      0.096293
    151 H71        11.3190    2.8810   -2.6920 hc        1 MOL      0.096293
    152 N14         7.6160    2.0640   -0.8880 n         1 MOL     -0.043252
    153 C49         6.5440    3.0600   -0.5110 c3        1 MOL      0.104388
    154 C50         7.0320    3.8310    0.6940 c         1 MOL      0.248499
    155 O20         6.7150    5.0360    0.8170 o         1 MOL     -0.482982
    156 C51         5.2300    2.3560   -0.2240 c3        1 MOL      0.087498
    157 C52         4.1870    3.3180    0.3580 c3        1 MOL     -0.104122
    158 C53         2.8380    2.7790    0.2330 c         1 MOL      0.689226
    159 O21         2.4830    1.8090    0.8860 o         1 MOL     -0.713074
    160 O22         1.9230    3.4120   -0.4160 o         1 MOL     -0.713074
    161 H72         7.3190    1.0970   -0.9390 hn        1 MOL      0.000833
    162 H73         6.3320    3.7690   -1.3040 h1        1 MOL      0.106547
    163 H74         5.3430    1.5280    0.4820 hc        1 MOL     -0.043861
    164 H75         4.7030    2.0490   -1.1260 hc        1 MOL     -0.043861
    165 H76         4.2700    4.3270   -0.0330 hc        1 MOL      0.026974
    166 H77         4.4400    3.4250    1.4130 hc        1 MOL      0.026974
    167 N15         7.6480    3.1160    1.6350 n         1 MOL     -0.075771
    168 C54         8.2350    3.6850    2.8620 c3        1 MOL     -0.150589
    169 H78         8.1270    4.7700    2.8470 h1        1 MOL      0.077600
    170 H79         7.7200    3.2810    3.7330 h1        1 MOL      0.077600
    171 H80         9.2930    3.4280    2.9130 h1        1 MOL      0.077600
    172 H81         7.7420    2.1270    1.4860 hn        1 MOL      0.104370
    173 Ca1         0.7640    0.9890   -0.9620 Ca        1 MOL      1.714256
    174 O23        -0.5450    1.1310    1.4480 oh        1 MOL     -0.772669
    175 H82        -1.1160    1.7130    1.9600 ho        1 MOL      0.372499
    176 H83        -0.3810    0.3870    2.0170 ho        1 MOL      0.372499
    177 O24         2.0420    2.1860   -3.1870 oh        1 MOL     -0.772669
    178 H84         1.2160    2.4440   -3.6040 ho        1 MOL      0.372499
    179 H85         2.5790    1.8570   -3.9030 ho        1 MOL      0.372499
    180 O25        -1.8640   -0.1270   -1.1160 oh        1 MOL     -0.772669
    181 H86        -2.4640    0.2180   -1.7740 ho        1 MOL      0.372499
    182 H87        -2.2610    0.1150   -0.2810 ho        1 MOL      0.372499
    183 O26         3.1340   -0.2340   -1.7420 oh        1 MOL     -0.772669
    184 H88         4.0010   -0.2750   -1.3520 ho        1 MOL      0.372499
    185 H89         3.2280   -0.6810   -2.5860 ho        1 MOL      0.372499
    186 O27         0.7010   -0.7480   -3.0710 oh        1 MOL     -0.772669
    187 H90         0.1360   -0.4550   -3.7820 ho        1 MOL      0.372499
    188 H91         1.5900   -0.6750   -3.4230 ho        1 MOL      0.372499
@<TRIPOS>BOND
     1    1    2 1   
     2    1    4 1   
     3    1    5 1   
     4    1    6 1   
     5    2    3 2   
     6    2    7 1   
     7    7    8 1   
     8    7   15 1   
     9    8    9 1   
    10    8   11 1   
    11    8   16 1   
    12    9   10 2   
    13    9   19 1   
    14   11   12 1   
    15   11   17 1   
    16   11   18 1   
    17   12   13 1   
    18   12   14 1   
    19   19   20 1   
    20   19   28 1   
    21   20   21 1   
    22   20   23 1   
    23   20   29 1   
    24   21   22 2   
    25   21   41 1   
    26   23   24 1   
    27   23   30 1   
    28   23   31 1   
    29   24   25 1   
    30   24   32 1   
    31   24   33 1   
    32   25   26 1   
    33   25   34 1   
    34   25   35 1   
    35   26   27 1   
    36   26   36 1   
    37   26   37 1   
    38   27   38 1   
    39   27   39 1   
    40   27   40 1   
    41   41   42 1   
    42   41   49 1   
    43   42   43 1   
    44   42   45 1   
    45   42   50 1   
    46   43   44 2   
    47   43   53 1   
    48   45   46 1   
    49   45   51 1   
    50   45   52 1   
    51   46   47 1   
    52   46   48 1   
    53   53   54 1   
    54   53   57 1   
    55   54   55 1   
    56   54   58 1   
    57   54   59 1   
    58   55   56 2   
    59   55   60 1   
    60   60   61 1   
    61   60   68 1   
    62   61   62 1   
    63   61   64 1   
    64   61   69 1   
    65   62   63 2   
    66   62   74 1   
    67   64   65 1   
    68   64   70 1   
    69   64   71 1   
    70   65   66 1   
    71   65   67 2   
    72   66   72 1   
    73   66   73 1   
    74   74   75 1   
    75   74   78 1   
    76   75   76 1   
    77   75   79 1   
    78   75   80 1   
    79   76   77 2   
    80   76   81 1   
    81   81   82 1   
    82   81   93 1   
    83   82   83 1   
    84   82   85 1   
    85   82   94 1   
    86   83   84 2   
    87   83  102 1   
    88   85   86 1   
    89   85   95 1   
    90   85   96 1   
    91   86   87 ar  
    92   86   88 ar  
    93   87   89 ar  
    94   87   97 1   
    95   88   90 ar  
    96   88   98 1   
    97   89   91 ar  
    98   89   99 1   
    99   90   91 ar  
   100   90  100 1   
   101   91   92 1   
   102   92  101 1   
   103  102  103 1   
   104  102  110 1   
   105  103  104 1   
   106  103  106 1   
   107  103  111 1   
   108  104  105 2   
   109  104  121 1   
   110  106  107 1   
   111  106  108 1   
   112  106  112 1   
   113  107  109 1   
   114  107  113 1   
   115  107  114 1   
   116  108  115 1   
   117  108  116 1   
   118  108  117 1   
   119  109  118 1   
   120  109  119 1   
   121  109  120 1   
   122  121  122 1   
   123  121  127 1   
   124  122  123 1   
   125  122  125 1   
   126  122  128 1   
   127  123  124 2   
   128  123  132 1   
   129  125  126 1   
   130  125  129 1   
   131  125  130 1   
   132  126  131 1   
   133  132  133 1   
   134  132  137 1   
   135  133  134 1   
   136  133  136 1   
   137  133  138 1   
   138  134  135 2   
   139  134  142 1   
   140  136  139 1   
   141  136  140 1   
   142  136  141 1   
   143  142  143 1   
   144  142  147 1   
   145  143  144 1   
   146  143  146 1   
   147  143  148 1   
   148  144  145 2   
   149  144  152 1   
   150  146  149 1   
   151  146  150 1   
   152  146  151 1   
   153  152  153 1   
   154  152  161 1   
   155  153  154 1   
   156  153  156 1   
   157  153  162 1   
   158  154  155 2   
   159  154  167 1   
   160  156  157 1   
   161  156  163 1   
   162  156  164 1   
   163  157  158 1   
   164  157  165 1   
   165  157  166 1   
   166  158  159 1   
   167  158  160 1   
   168  167  168 1   
   169  167  172 1   
   170  168  169 1   
   171  168  170 1   
   172  168  171 1   
   173  174  175 1   
   174  174  176 1   
   175  177  178 1   
   176  177  179 1   
   177  180  181 1   
   178  180  182 1   
   179  183  184 1   
   180  183  185 1   
   181  186  187 1   
   182  186  188 1   
@<TRIPOS>SUBSTRUCTURE
     1 MOL         1 TEMP              0 ****  ****    0 ROOT
