@<TRIPOS>MOLECULE
MOL
  181   177     1     0     0
SMALL
resp


@<TRIPOS>ATOM
      1 C1         -5.5730    7.8690    1.7210 c3        1 MOL     -0.354545
      2 C2         -6.4500    7.2040    0.6340 c         1 MOL      0.727905
      3 O1         -6.2860    7.5440   -0.5090 o         1 MOL     -0.584394
      4 H1         -6.1850    8.0910    2.5950 hc        1 MOL      0.078319
      5 H2         -4.7680    7.1910    2.0050 hc        1 MOL      0.078319
      6 H3         -5.1490    8.7940    1.3300 hc        1 MOL      0.078319
      7 N1         -7.3750    6.3160    1.0570 n         1 MOL     -0.506906
      8 C3         -8.4760    5.7650    0.2410 c3        1 MOL      0.034729
      9 C4         -7.9770    4.5850   -0.7000 c         1 MOL      0.475227
     10 O2         -8.7810    4.0970   -1.5300 o         1 MOL     -0.526591
     11 C5         -9.4360    5.0080    1.2070 c3        1 MOL     -0.089452
     12 C6        -10.8410    4.7140    0.6910 c         1 MOL      0.698195
     13 O3        -11.3870    5.6560    0.0470 o         1 MOL     -0.725796
     14 O4        -11.4570    3.7160    1.1670 o         1 MOL     -0.725796
     15 H4         -7.4160    6.1430    2.0520 hn        1 MOL      0.273093
     16 H5         -9.0220    6.4770   -0.3750 h1        1 MOL      0.083333
     17 H6         -9.5910    5.5920    2.1100 hc        1 MOL     -0.004691
     18 H7         -8.9700    4.0770    1.5290 hc        1 MOL     -0.004691
     19 N2         -6.7100    4.2010   -0.4660 n         1 MOL     -0.356927
     20 C7         -6.0560    3.1630   -1.1690 c3        1 MOL      0.224536
     21 C8         -5.0140    2.4960   -0.2900 c         1 MOL      0.421611
     22 O5         -4.4420    3.1140    0.5970 o         1 MOL     -0.536037
     23 C9         -5.2190    3.8140   -2.3130 c3        1 MOL     -0.176473
     24 H8         -6.1860    4.6900    0.2450 hn        1 MOL      0.191545
     25 H9         -6.7800    2.4820   -1.6070 h1        1 MOL      0.031531
     26 H10        -4.5710    4.5480   -1.8230 hc        1 MOL      0.044614
     27 H11        -4.6000    3.0750   -2.8180 hc        1 MOL      0.044614
     28 H12        -5.8710    4.3220   -3.0150 hc        1 MOL      0.044614
     29 N3         -4.8340    1.2220   -0.4280 n         1 MOL     -0.260694
     30 C10        -5.5300    0.2050   -1.3370 c3        1 MOL     -0.102389
     31 C11        -5.7720   -1.1940   -0.6620 c         1 MOL      0.427308
     32 O6         -5.1900   -1.5600    0.3380 o         1 MOL     -0.471669
     33 C12        -4.7990    0.0360   -2.7010 c3        1 MOL     -0.210656
     34 C13        -3.2640   -0.2820   -2.6470 c         1 MOL      0.715469
     35 O7         -2.8140   -0.8290   -1.6270 o         1 MOL     -0.707310
     36 O8         -2.5130    0.0050   -3.6260 o         1 MOL     -0.707310
     37 H13        -4.1900    0.7930    0.2120 hn        1 MOL      0.205491
     38 H14        -6.5040    0.6410   -1.5410 h1        1 MOL      0.089029
     39 H15        -5.0220    0.8650   -3.3720 hc        1 MOL      0.071769
     40 H16        -5.2360   -0.7350   -3.3330 hc        1 MOL      0.071769
     41 N4         -6.6840   -2.0300   -1.2260 n         1 MOL     -0.327072
     42 C14        -6.9630   -3.4350   -0.8530 c3        1 MOL      0.026043
     43 C15        -6.6710   -4.4320   -1.9740 c         1 MOL      0.588404
     44 O9         -7.5880   -4.9530   -2.5510 o         1 MOL     -0.552501
     45 H17        -7.2580   -1.5450   -1.8960 hn        1 MOL      0.272562
     46 H18        -8.0490   -3.4160   -0.7680 h1        1 MOL      0.031847
     47 H19        -6.4270   -3.7230    0.0520 h1        1 MOL      0.031847
     48 N5         -5.3970   -4.6460   -2.2780 n         1 MOL     -0.618525
     49 C16        -4.1830   -4.2960   -1.5390 c3        1 MOL      0.124504
     50 C17        -4.1080   -5.0460   -0.1430 c         1 MOL      0.548141
     51 O10        -3.9860   -6.3000   -0.1360 o         1 MOL     -0.567844
     52 C18        -3.0840   -4.7420   -2.4610 c3        1 MOL     -0.121826
     53 C19        -1.7130   -4.2600   -1.9110 c         1 MOL      0.639270
     54 N6         -0.6550   -4.4920   -2.6700 n         1 MOL     -0.801440
     55 O11        -1.5730   -3.7190   -0.8350 o         1 MOL     -0.698794
     56 H20        -5.2920   -5.4270   -2.9110 hn        1 MOL      0.324703
     57 H21        -4.0670   -3.2190   -1.4710 h1        1 MOL      0.103755
     58 H22        -3.2240   -4.2950   -3.4480 hc        1 MOL      0.052713
     59 H23        -3.0180   -5.8210   -2.5690 hc        1 MOL      0.052713
     60 H24        -0.6740   -5.1100   -3.4750 hn        1 MOL      0.370901
     61 H25         0.1980   -4.2400   -2.2010 hn        1 MOL      0.370901
     62 N7         -4.0760   -4.3270    0.9790 n         1 MOL     -0.085149
     63 C20        -3.9390   -4.9040    2.3150 c3        1 MOL     -0.380034
     64 C21        -2.5230   -5.3070    2.7720 c         1 MOL      0.676377
     65 O12        -2.4120   -5.9860    3.7410 o         1 MOL     -0.565159
     66 H26        -3.9810   -3.3250    0.8600 hn        1 MOL      0.180334
     67 H27        -4.4790   -5.8400    2.1380 h1        1 MOL      0.129892
     68 H28        -4.3060   -4.3170    3.1470 h1        1 MOL      0.129892
     69 N8         -1.4250   -4.8130    2.0940 n         1 MOL     -0.419529
     70 C22         0.0080   -5.0930    2.2720 c3        1 MOL     -0.067305
     71 C23         0.7350   -3.7690    2.1150 c         1 MOL      0.424957
     72 O13         0.2620   -2.8880    1.4110 o         1 MOL     -0.461728
     73 C24         0.5430   -6.1820    1.3430 c3        1 MOL      0.364154
     74 C25        -0.1180   -7.5630    1.4960 c3        1 MOL     -0.497766
     75 O14         0.2850   -5.8290   -0.0340 oh        1 MOL     -0.665733
     76 H29        -1.6090   -4.2950    1.2590 hn        1 MOL      0.288698
     77 H30         0.1440   -5.4180    3.3050 h1        1 MOL      0.079044
     78 H31         1.6210   -6.3140    1.4220 h1        1 MOL      0.001821
     79 H32         0.7680   -5.0900   -0.3880 ho        1 MOL      0.581053
     80 H33         0.3800   -8.2150    0.7830 hc        1 MOL      0.132120
     81 H34        -0.0360   -7.8900    2.5300 hc        1 MOL      0.132120
     82 H35        -1.1680   -7.4780    1.2220 hc        1 MOL      0.132120
     83 N9          1.9000   -3.6440    2.7920 n         1 MOL     -0.394192
     84 C26         2.9990   -2.6980    2.5590 c3        1 MOL     -0.036961
     85 C27         3.8800   -3.0430    1.3250 c         1 MOL      0.417012
     86 O15         4.3340   -4.1520    1.2350 o         1 MOL     -0.514721
     87 C28         3.7190   -2.3760    3.8220 c3        1 MOL      0.383038
     88 C29         4.5340   -1.0800    3.6690 c3        1 MOL     -0.101299
     89 C30         2.9570   -2.2150    5.0950 c3        1 MOL     -0.355509
     90 C31         5.9910   -1.1070    3.2480 c3        1 MOL     -0.131590
     91 H36         2.0640   -4.4580    3.3640 hn        1 MOL      0.236040
     92 H37         2.4480   -1.7940    2.2710 h1        1 MOL      0.108975
     93 H38         4.4280   -3.1990    3.9740 hc        1 MOL     -0.061580
     94 H39         4.4140   -0.4820    4.5730 hc        1 MOL      0.026054
     95 H40         4.0150   -0.5060    2.9050 hc        1 MOL      0.026054
     96 H41         3.7440   -1.9740    5.8170 hc        1 MOL      0.073031
     97 H42         2.3230   -1.3440    4.9920 hc        1 MOL      0.073031
     98 H43         2.4160   -3.1120    5.3990 hc        1 MOL      0.073031
     99 H44         6.3580   -0.0760    3.2280 hc        1 MOL      0.025599
    100 H45         6.5800   -1.6830    3.9610 hc        1 MOL      0.025599
    101 H46         6.0820   -1.5490    2.2550 hc        1 MOL      0.025599
    102 N10         4.0420   -2.1410    0.3120 n         1 MOL     -0.226803
    103 C32         4.5820   -2.4990   -1.0260 c3        1 MOL     -0.012726
    104 C33         5.6450   -1.5480   -1.6650 c         1 MOL      0.515021
    105 O16         6.0100   -1.8450   -2.7670 o         1 MOL     -0.552520
    106 C34         3.4050   -2.5860   -2.0540 c3        1 MOL     -0.084572
    107 C35         2.2440   -3.3400   -1.5880 c         1 MOL      0.798817
    108 O17         2.1590   -4.6170   -1.5320 o         1 MOL     -0.758862
    109 O18         1.1540   -2.6460   -1.4430 o         1 MOL     -0.758862
    110 H47         3.4890   -1.3060    0.3570 hn        1 MOL      0.114276
    111 H48         5.1110   -3.4450   -0.9390 h1        1 MOL      0.082608
    112 H49         3.6910   -3.0660   -2.9870 hc        1 MOL      0.019451
    113 H50         3.1400   -1.5570   -2.3070 hc        1 MOL      0.019451
    114 N11         5.9560   -0.4990   -0.9960 n         1 MOL     -0.309305
    115 C36         6.7950    0.5520   -1.4730 c3        1 MOL      0.076920
    116 C37         6.5820    1.7860   -0.5460 c         1 MOL      0.488147
    117 O19         6.3550    1.6610    0.6390 o         1 MOL     -0.529974
    118 C38         8.2810    0.0890   -1.4550 c3        1 MOL     -0.200505
    119 C39         9.3430    1.0500   -1.8330 ca        1 MOL      0.100302
    120 C40         9.9350    1.8060   -0.8040 ca        1 MOL     -0.113085
    121 C41         9.7980    1.0960   -3.1600 ca        1 MOL     -0.113085
    122 C42        11.0190    2.6170   -1.1190 ca        1 MOL     -0.160716
    123 C43        10.8750    1.9950   -3.4440 ca        1 MOL     -0.160716
    124 C44        11.4990    2.7200   -2.4400 ca        1 MOL     -0.108009
    125 H51         5.6570   -0.3980   -0.0290 hn        1 MOL      0.197115
    126 H52         6.5040    0.6860   -2.5060 h1        1 MOL      0.091846
    127 H53         8.4110   -0.7300   -2.1650 hc        1 MOL      0.082310
    128 H54         8.5510   -0.2930   -0.4760 hc        1 MOL      0.082310
    129 H55         9.6490    1.6670    0.2280 ha        1 MOL      0.122776
    130 H56         9.2670    0.5230   -3.9040 ha        1 MOL      0.122776
    131 H57        11.4890    3.2810   -0.4100 ha        1 MOL      0.119275
    132 H58        11.0230    2.1090   -4.5090 ha        1 MOL      0.119275
    133 H59        12.3270    3.3840   -2.6680 ha        1 MOL      0.112558
    134 N12         6.5850    3.0100   -1.1060 n         1 MOL     -0.278173
    135 C45         6.7470    4.2260   -0.2670 c3        1 MOL      0.269981
    136 C46         5.4150    4.6870    0.3880 c         1 MOL      0.302257
    137 O20         5.2690    5.8550    0.8010 o         1 MOL     -0.540055
    138 C47         7.4820    5.2790   -1.1150 c3        1 MOL     -0.352227
    139 C48         7.9410    4.5110   -2.3530 c3        1 MOL      0.275717
    140 C49         7.0080    3.3590   -2.4400 c3        1 MOL      0.044982
    141 H60         7.4440    4.0190    0.5330 h1        1 MOL      0.031936
    142 H61         6.7610    6.0300   -1.4180 hc        1 MOL      0.097947
    143 H62         8.3890    5.6960   -0.6750 hc        1 MOL      0.097947
    144 H63         8.0380    5.1040   -3.2550 hc        1 MOL     -0.047805
    145 H64         8.9290    4.1190   -2.1050 hc        1 MOL     -0.047805
    146 H65         6.1200    3.5640   -3.0380 h1        1 MOL     -0.001264
    147 H66         7.5070    2.5690   -3.0050 h1        1 MOL     -0.001264
    148 N13         4.4280    3.8230    0.5770 n         1 MOL      0.034421
    149 C50         3.1760    4.1420    1.2340 c3        1 MOL     -0.448485
    150 C51         3.1970    4.4700    2.7570 c         1 MOL      0.552640
    151 O21         2.2190    4.9440    3.3680 o         1 MOL     -0.533946
    152 C52         2.2060    2.8750    1.0160 c3        1 MOL      0.024172
    153 C53         2.7750    1.4080    1.4040 c3        1 MOL     -0.006027
    154 C54         1.7480    0.3780    1.0250 c         1 MOL      0.571184
    155 O22         2.0150   -0.1870   -0.0740 o         1 MOL     -0.684535
    156 O23         0.7200    0.0550    1.6020 o         1 MOL     -0.684535
    157 H67         4.6640    2.9160    0.1930 hn        1 MOL      0.055020
    158 H68         2.7140    4.9640    0.6950 h1        1 MOL      0.208191
    159 H69         1.9320    2.7760   -0.0400 hc        1 MOL      0.047777
    160 H70         1.2500    2.9790    1.5300 hc        1 MOL      0.047777
    161 H71         3.0000    1.4360    2.4730 hc        1 MOL      0.003478
    162 H72         3.7060    1.2330    0.8570 hc        1 MOL      0.003478
    163 N14         4.3610    4.2100    3.3560 n         1 MOL     -0.131327
    164 C55         4.6990    4.5020    4.7060 c3        1 MOL     -0.149620
    165 H73         3.7910    4.7300    5.2650 h1        1 MOL      0.068635
    166 H74         5.1930    3.6390    5.1530 h1        1 MOL      0.068635
    167 H75         5.3680    5.3620    4.7350 h1        1 MOL      0.068635
    168 H76         5.0980    3.6990    2.8780 hn        1 MOL      0.196361
    169 Ca1        -0.6520   -1.1970   -0.3500 Ca        1 MOL      1.804138
    170 O24        -1.3640    1.8210   -1.1430 oh        1 MOL     -0.829017
    171 H77        -1.5010    1.5220   -2.0390 ho        1 MOL      0.406954
    172 H78        -1.2480    2.7690   -1.2280 ho        1 MOL      0.406954
    173 O25         0.0920   -0.1000   -2.6550 oh        1 MOL     -0.829017
    174 H79        -0.2350    0.0490   -3.5510 ho        1 MOL      0.406954
    175 H80         1.0260    0.1010   -2.7080 ho        1 MOL      0.406954
    176 O26        -2.6250   -1.7910    1.3370 oh        1 MOL     -0.829017
    177 H81        -3.5090   -1.4980    1.1240 ho        1 MOL      0.406954
    178 H82        -2.2880   -1.1160    1.9220 ho        1 MOL      0.406954
    179 O27        -2.0560    0.9080    1.2590 oh        1 MOL     -0.829017
    180 H83        -2.0140    1.4120    0.4510 ho        1 MOL      0.406954
    181 H84        -2.0950    1.5610    1.9540 ho        1 MOL      0.406954
@<TRIPOS>BOND
     1    1    2 1   
     2    1    4 1   
     3    1    5 1   
     4    1    6 1   
     5    2    3 2   
     6    2    7 1   
     7    7    8 1   
     8    7   15 1   
     9    8    9 1   
    10    8   11 1   
    11    8   16 1   
    12    9   10 2   
    13    9   19 1   
    14   11   12 1   
    15   11   17 1   
    16   11   18 1   
    17   12   13 1   
    18   12   14 1   
    19   19   20 1   
    20   19   24 1   
    21   20   21 1   
    22   20   23 1   
    23   20   25 1   
    24   21   22 2   
    25   21   29 1   
    26   23   26 1   
    27   23   27 1   
    28   23   28 1   
    29   29   30 1   
    30   29   37 1   
    31   30   31 1   
    32   30   33 1   
    33   30   38 1   
    34   31   32 2   
    35   31   41 1   
    36   33   34 1   
    37   33   39 1   
    38   33   40 1   
    39   34   35 1   
    40   34   36 1   
    41   41   42 1   
    42   41   45 1   
    43   42   43 1   
    44   42   46 1   
    45   42   47 1   
    46   43   44 2   
    47   43   48 1   
    48   48   49 1   
    49   48   56 1   
    50   49   50 1   
    51   49   52 1   
    52   49   57 1   
    53   50   51 2   
    54   50   62 1   
    55   52   53 1   
    56   52   58 1   
    57   52   59 1   
    58   53   54 1   
    59   53   55 2   
    60   54   60 1   
    61   54   61 1   
    62   62   63 1   
    63   62   66 1   
    64   63   64 1   
    65   63   67 1   
    66   63   68 1   
    67   64   65 2   
    68   64   69 1   
    69   69   70 1   
    70   69   76 1   
    71   70   71 1   
    72   70   73 1   
    73   70   77 1   
    74   71   72 2   
    75   71   83 1   
    76   73   74 1   
    77   73   75 1   
    78   73   78 1   
    79   74   80 1   
    80   74   81 1   
    81   74   82 1   
    82   75   79 1   
    83   83   84 1   
    84   83   91 1   
    85   84   85 1   
    86   84   87 1   
    87   84   92 1   
    88   85   86 2   
    89   85  102 1   
    90   87   88 1   
    91   87   89 1   
    92   87   93 1   
    93   88   90 1   
    94   88   94 1   
    95   88   95 1   
    96   89   96 1   
    97   89   97 1   
    98   89   98 1   
    99   90   99 1   
   100   90  100 1   
   101   90  101 1   
   102  102  103 1   
   103  102  110 1   
   104  103  104 1   
   105  103  106 1   
   106  103  111 1   
   107  104  105 2   
   108  104  114 1   
   109  106  107 1   
   110  106  112 1   
   111  106  113 1   
   112  107  108 1   
   113  107  109 1   
   114  114  115 1   
   115  114  125 1   
   116  115  116 1   
   117  115  118 1   
   118  115  126 1   
   119  116  117 2   
   120  116  134 1   
   121  118  119 1   
   122  118  127 1   
   123  118  128 1   
   124  119  120 ar  
   125  119  121 ar  
   126  120  122 ar  
   127  120  129 1   
   128  121  123 ar  
   129  121  130 1   
   130  122  124 ar  
   131  122  131 1   
   132  123  124 ar  
   133  123  132 1   
   134  124  133 1   
   135  134  135 1   
   136  134  140 1   
   137  135  136 1   
   138  135  138 1   
   139  135  141 1   
   140  136  137 2   
   141  136  148 1   
   142  138  139 1   
   143  138  142 1   
   144  138  143 1   
   145  139  140 1   
   146  139  144 1   
   147  139  145 1   
   148  140  146 1   
   149  140  147 1   
   150  148  149 1   
   151  148  157 1   
   152  149  150 1   
   153  149  152 1   
   154  149  158 1   
   155  150  151 2   
   156  150  163 1   
   157  152  153 1   
   158  152  159 1   
   159  152  160 1   
   160  153  154 1   
   161  153  161 1   
   162  153  162 1   
   163  154  155 1   
   164  154  156 1   
   165  163  164 1   
   166  163  168 1   
   167  164  165 1   
   168  164  166 1   
   169  164  167 1   
   170  170  171 1   
   171  170  172 1   
   172  173  174 1   
   173  173  175 1   
   174  176  177 1   
   175  176  178 1   
   176  179  180 1   
   177  179  181 1   
@<TRIPOS>SUBSTRUCTURE
     1 MOL         1 TEMP              0 ****  ****    0 ROOT
