@<TRIPOS>MOLECULE
MOL
  192   187     1     0     0
SMALL
resp


@<TRIPOS>ATOM
      1 C1         -4.0960   -5.0020   -2.3190 c3        1 MOL     -0.364861
      2 C2         -4.8970   -3.9620   -1.4550 c         1 MOL      0.810733
      3 O1         -4.2690   -3.4440   -0.5190 o         1 MOL     -0.730664
      4 H1         -3.5240   -4.4750   -3.0830 hc        1 MOL      0.084179
      5 H2         -3.4150   -5.5620   -1.6770 hc        1 MOL      0.084179
      6 H3         -4.7930   -5.6900   -2.7980 hc        1 MOL      0.084179
      7 N1         -6.1680   -3.7320   -1.7630 n         1 MOL     -0.717195
      8 C3         -6.7700   -2.4530   -1.4190 c3        1 MOL      0.440427
      9 C4         -5.9400   -1.1420   -1.4260 c         1 MOL      0.067452
     10 O2         -5.6810   -0.5420   -0.4320 o         1 MOL     -0.287856
     11 C5         -7.7470   -2.4750   -0.2010 c3        1 MOL     -0.076545
     12 C6         -7.3320   -3.1250    1.1620 c         1 MOL      0.592118
     13 O3         -6.1900   -3.5130    1.3570 o         1 MOL     -0.688746
     14 O4         -8.2000   -3.1180    2.1340 o         1 MOL     -0.688746
     15 H4         -6.6220   -4.2660   -2.4880 hn        1 MOL      0.342790
     16 H5         -7.4460   -2.2580   -2.2550 h1        1 MOL     -0.031790
     17 H6         -8.6310   -2.9750   -0.5960 hc        1 MOL     -0.002377
     18 H7         -8.0590   -1.4540    0.0590 hc        1 MOL     -0.002377
     19 N2         -5.4980   -0.8140   -2.5720 n         1 MOL     -0.121719
     20 C7         -4.8100    0.3630   -3.0700 c3        1 MOL     -0.140968
     21 C8         -5.4790    1.7010   -2.8430 c         1 MOL      0.487983
     22 O5         -5.7840    2.3540   -3.8360 o         1 MOL     -0.551615
     23 C9         -3.2660    0.4250   -2.7630 c3        1 MOL      0.019264
     24 C10        -2.5990    1.5250   -3.5900 c3        1 MOL      0.106067
     25 C11        -2.6290   -0.9990   -2.7720 c3        1 MOL     -0.118625
     26 C12        -2.6010    1.2290   -5.1200 c3        1 MOL     -0.123071
     27 H8         -5.6870   -1.5470   -3.2400 hn        1 MOL      0.180065
     28 H9         -4.8600    0.2410   -4.1510 h1        1 MOL      0.093380
     29 H10        -3.2190    0.7920   -1.7370 hc        1 MOL     -0.013131
     30 H11        -1.5900    1.6830   -3.2020 hc        1 MOL      0.002383
     31 H12        -3.1480    2.4670   -3.4930 hc        1 MOL      0.002383
     32 H13        -1.5590   -0.9520   -2.5620 hc        1 MOL      0.033382
     33 H14        -3.0950   -1.5560   -1.9660 hc        1 MOL      0.033382
     34 H15        -2.7360   -1.6050   -3.6710 hc        1 MOL      0.033382
     35 H16        -2.1890    0.2400   -5.3440 hc        1 MOL      0.010640
     36 H17        -3.6380    1.2910   -5.4520 hc        1 MOL      0.010640
     37 H18        -1.9990    1.9540   -5.6660 hc        1 MOL      0.010640
     38 N3         -5.8880    2.0280   -1.6010 n         1 MOL     -0.029729
     39 C13        -6.6160    3.2220   -1.1620 c3        1 MOL     -0.051055
     40 C14        -5.7310    4.4510   -1.1760 c         1 MOL      0.572160
     41 O6         -6.2050    5.4600   -1.6600 o         1 MOL     -0.607466
     42 C15        -7.1880    2.9150    0.2260 c3        1 MOL     -0.020263
     43 C16        -8.0900    1.6990    0.2510 c         1 MOL      0.624052
     44 O7         -8.3140    1.1200    1.3800 o         1 MOL     -0.657429
     45 O8         -8.6310    1.3210   -0.8260 o         1 MOL     -0.657429
     46 H19        -5.9160    1.2540   -0.9510 hn        1 MOL      0.002409
     47 H20        -7.4420    3.4260   -1.8420 h1        1 MOL      0.061863
     48 H21        -7.7570    3.7350    0.6480 hc        1 MOL     -0.000133
     49 H22        -6.3460    2.7440    0.9030 hc        1 MOL     -0.000133
     50 N4         -4.4660    4.5050   -0.9370 n         1 MOL     -0.474820
     51 C17        -3.6250    3.5070   -0.2770 c3        1 MOL      0.117565
     52 C18        -2.4240    4.1230    0.4210 c         1 MOL      0.551134
     53 O9         -1.7910    5.0250   -0.0850 o         1 MOL     -0.587902
     54 H23        -4.1080    5.4380   -0.8010 hn        1 MOL      0.279761
     55 H24        -3.1390    2.9970   -1.0960 h1        1 MOL      0.026793
     56 H25        -4.1620    2.8290    0.3860 h1        1 MOL      0.026793
     57 N5         -2.0540    3.7940    1.6510 n         1 MOL     -0.579240
     58 C19        -2.4580    2.6090    2.4420 c3        1 MOL      0.529517
     59 C20        -2.4130    1.2820    1.7790 c         1 MOL     -0.000188
     60 O10        -3.3880    0.6010    1.5580 o         1 MOL     -0.411942
     61 C21        -3.6640    2.9410    3.2160 c3        1 MOL     -0.430204
     62 C22        -3.8810    1.8690    4.3080 c         1 MOL      0.714819
     63 O11        -5.0580    1.6470    4.6520 o         1 MOL     -0.667707
     64 O12        -2.9560    1.1540    4.7810 o         1 MOL     -0.667707
     65 H26        -1.2540    4.3290    1.9860 hn        1 MOL      0.314655
     66 H27        -1.7560    2.4840    3.2570 h1        1 MOL     -0.045081
     67 H28        -4.5700    3.0170    2.6200 hc        1 MOL      0.084319
     68 H29        -3.4840    3.9010    3.6850 hc        1 MOL      0.084319
     69 N6         -1.2430    0.7520    1.4150 n         1 MOL     -0.032297
     70 C23         0.0680    1.3500    1.4950 c3        1 MOL     -0.027915
     71 C24         0.4860    2.1490    0.2710 c         1 MOL      0.587829
     72 O13        -0.1750    2.0660   -0.7810 o         1 MOL     -0.471786
     73 H30        -1.3120   -0.1760    1.0100 hn        1 MOL      0.106109
     74 H31         0.7670    0.5240    1.6240 h1        1 MOL      0.039015
     75 H32         0.1750    1.9550    2.3940 h1        1 MOL      0.039015
     76 N7          1.4460    3.0070    0.3960 n         1 MOL     -0.631372
     77 C25         1.8290    4.0170   -0.5210 c3        1 MOL     -0.026843
     78 C26         2.8840    3.6340   -1.6120 c         1 MOL      0.493123
     79 O14         3.6600    4.4420   -2.0920 o         1 MOL     -0.518233
     80 C27         2.3240    5.2250    0.3220 c3        1 MOL      0.124199
     81 C28         1.3360    5.9300    1.1600 c3        1 MOL     -0.240316
     82 C29         1.8480    7.0710    2.1120 c         1 MOL      0.628855
     83 N8          0.9630    7.9700    2.4790 n         1 MOL     -0.754067
     84 O15         3.0410    7.0520    2.5240 o         1 MOL     -0.549263
     85 H33         1.9640    3.0740    1.2610 hn        1 MOL      0.358453
     86 H34         0.9680    4.4260   -1.0630 h1        1 MOL      0.137907
     87 H35         2.7770    5.9800   -0.3120 hc        1 MOL      0.005114
     88 H36         3.1980    5.0490    0.9460 hc        1 MOL      0.005114
     89 H37         0.6520    5.2460    1.6670 hc        1 MOL      0.061497
     90 H38         0.6860    6.3390    0.3820 hc        1 MOL      0.061497
     91 H39         0.0260    7.9610    2.1010 hn        1 MOL      0.353019
     92 H40         1.2200    8.8140    2.9610 hn        1 MOL      0.353019
     93 N9          2.8090    2.3640   -2.1410 n         1 MOL     -0.335866
     94 C30         3.5610    1.9030   -3.3110 c3        1 MOL     -0.035600
     95 C31         5.0370    1.5200   -3.1020 c         1 MOL      0.375738
     96 O16         5.6440    1.0380   -4.0800 o         1 MOL     -0.528342
     97 C32         2.7630    0.7290   -4.0400 c3        1 MOL      0.098557
     98 C33         1.3450    1.1770   -4.2660 c3        1 MOL     -0.066301
     99 C34         2.7800   -0.6170   -3.3050 c3        1 MOL     -0.066301
    100 H41         2.0770    1.7620   -1.7850 hn        1 MOL      0.194892
    101 H42         3.5880    2.7570   -3.9760 h1        1 MOL      0.128077
    102 H43         3.2360    0.5880   -5.0140 hc        1 MOL      0.022716
    103 H44         0.8250    1.1350   -3.3130 hc        1 MOL      0.011021
    104 H45         1.4130    2.1880   -4.6760 hc        1 MOL      0.011021
    105 H46         0.8690    0.5460   -5.0170 hc        1 MOL      0.011021
    106 H47         2.2380   -0.6090   -2.3550 hc        1 MOL      0.011021
    107 H48         2.4700   -1.4470   -3.9420 hc        1 MOL      0.011021
    108 H49         3.8030   -0.8080   -2.9740 hc        1 MOL      0.011021
    109 N10         5.6220    1.6820   -1.9260 n         1 MOL     -0.363381
    110 C35         7.1050    1.3470   -1.8210 c3        1 MOL      0.489338
    111 C36         7.3660   -0.1250   -1.5060 c         1 MOL      0.150323
    112 O17         8.5510   -0.5930   -1.5170 o         1 MOL     -0.485454
    113 C37         7.8670    2.3260   -0.9110 c3        1 MOL     -0.484830
    114 C38         8.1990    3.6820   -1.5010 c         1 MOL      0.761674
    115 N11         9.0410    4.3990   -0.8720 n         1 MOL     -0.744458
    116 O18         7.7330    4.0940   -2.5610 o         1 MOL     -0.578198
    117 H50         5.1560    2.1170   -1.1440 hn        1 MOL      0.286143
    118 H51         7.5700    1.4370   -2.8020 h1        1 MOL      0.025106
    119 H52         8.8060    1.8730   -0.6040 hc        1 MOL      0.079353
    120 H53         7.3350    2.3890    0.0380 hc        1 MOL      0.079353
    121 H54         9.6160    3.8980   -0.2150 hn        1 MOL      0.338898
    122 H55         9.2590    5.3190   -1.2200 hn        1 MOL      0.338898
    123 N12         6.3550   -0.8870   -1.0440 n         1 MOL      0.056879
    124 C39         6.4100   -2.2470   -0.6300 c3        1 MOL      0.107735
    125 C40         4.9840   -2.8320   -0.2180 c         1 MOL      0.259794
    126 O19         4.0230   -2.0740   -0.0800 o         1 MOL     -0.235907
    127 C41         7.4050   -2.2580    0.5810 c3        1 MOL     -0.382860
    128 C42         7.4800   -1.0910    1.5420 ca        1 MOL     -0.025209
    129 C43         6.2740   -0.7050    2.1970 ca        1 MOL     -0.051622
    130 C44         8.6260   -0.2890    1.7570 ca        1 MOL     -0.051622
    131 C45         6.1570    0.4370    2.9880 ca        1 MOL     -0.241029
    132 C46         8.6110    0.8490    2.6290 ca        1 MOL     -0.241029
    133 C47         7.3570    1.2080    3.2260 ca        1 MOL      0.251213
    134 O20         7.2660    2.1550    4.1800 oh        1 MOL     -0.372691
    135 H56         5.4350   -0.4800   -0.9730 hn        1 MOL      0.003662
    136 H57         6.7910   -2.8210   -1.4770 h1        1 MOL      0.039841
    137 H58         8.4190   -2.5120    0.2880 hc        1 MOL      0.137235
    138 H59         6.9960   -2.9850    1.2830 hc        1 MOL      0.137235
    139 H60         5.3580   -1.2370    1.9910 ha        1 MOL      0.086519
    140 H61         9.6040   -0.5060    1.3680 ha        1 MOL      0.086519
    141 H62         5.1960    0.7470    3.3670 ha        1 MOL      0.141875
    142 H63         9.5150    1.3880    2.8620 ha        1 MOL      0.141875
    143 H64         8.1400    2.5360    4.3000 ho        1 MOL      0.276390
    144 N13         4.9920   -4.1500    0.2080 n         1 MOL     -0.376035
    145 C48         3.9410   -4.8530    0.9980 c3        1 MOL      0.135359
    146 C49         2.6710   -5.1130    0.2380 c         1 MOL      0.338817
    147 O21         2.2010   -6.2650    0.2680 o         1 MOL     -0.543252
    148 C50         3.6770   -4.1700    2.3330 c3        1 MOL      0.114487
    149 C51         4.7820   -4.4050    3.3320 c3        1 MOL     -0.118541
    150 C52         4.9570   -3.4530    4.5320 c         1 MOL      0.796681
    151 O22         4.1050   -2.5380    4.6350 o         1 MOL     -0.748190
    152 O23         5.8130   -3.6550    5.4190 o         1 MOL     -0.748190
    153 H65         5.8720   -4.6240    0.1390 hn        1 MOL      0.257665
    154 H66         4.3630   -5.7800    1.3650 h1        1 MOL      0.034685
    155 H67         2.8040   -4.5870    2.8300 hc        1 MOL      0.006640
    156 H68         3.5650   -3.1030    2.0980 hc        1 MOL      0.006640
    157 H69         5.7150   -4.3530    2.7820 hc        1 MOL     -0.041387
    158 H70         4.6780   -5.4250    3.7280 hc        1 MOL     -0.041387
    159 N14         2.1210   -4.2010   -0.5590 n         1 MOL     -0.148028
    160 C53         1.0410   -4.4900   -1.4520 c3        1 MOL      0.064727
    161 C54         1.4450   -5.2740   -2.7490 c         1 MOL      0.434675
    162 O24         0.6160   -5.7290   -3.5440 o         1 MOL     -0.531869
    163 C55         0.3400   -3.1900   -1.8340 c3        1 MOL     -0.050319
    164 C56         0.0580   -2.1680   -0.7380 c3        1 MOL      0.082294
    165 C57        -0.8780   -2.6540    0.3920 c         1 MOL      0.835088
    166 O25        -1.9100   -2.0140    0.6700 o         1 MOL     -0.722900
    167 O26        -0.5840   -3.6250    1.0910 o         1 MOL     -0.722900
    168 H71         2.5030   -3.2650   -0.5740 hn        1 MOL      0.073288
    169 H72         0.3150   -5.1690   -1.0120 h1        1 MOL      0.117589
    170 H73        -0.5970   -3.4930   -2.2920 hc        1 MOL      0.006301
    171 H74         0.9690   -2.7150   -2.5860 hc        1 MOL      0.006301
    172 H75        -0.2370   -1.2090   -1.1710 hc        1 MOL     -0.041929
    173 H76         1.0220   -1.9880   -0.2750 hc        1 MOL     -0.041929
    174 N15         2.7610   -5.6250   -2.8850 n         1 MOL     -0.273732
    175 C58         3.2860   -6.7450   -3.7820 c3        1 MOL     -0.124494
    176 H77         4.0550   -6.3480   -4.4450 h1        1 MOL      0.076531
    177 H78         3.7110   -7.5360   -3.1650 h1        1 MOL      0.076531
    178 H79         2.4670   -7.1490   -4.3780 h1        1 MOL      0.076531
    179 H80         3.3940   -5.2640   -2.1840 hn        1 MOL      0.161255
    180 Ca1        -4.2770   -1.8970    1.6570 Ca        1 MOL      1.778592
    181 O27        -5.5520   -2.5680    4.0380 oh        1 MOL     -0.830931
    182 H81        -5.8370   -3.4780    4.1000 ho        1 MOL      0.396762
    183 H82        -6.1450   -2.0900    4.6120 ho        1 MOL      0.396762
    184 O28        -6.0370   -0.0110    2.5180 oh        1 MOL     -0.830931
    185 H83        -6.5730    0.4710    1.8840 ho        1 MOL      0.396762
    186 H84        -5.6490    0.6770    3.0630 ho        1 MOL      0.396762
    187 O29        -2.5990   -1.4010    3.6950 oh        1 MOL     -0.830931
    188 H85        -2.1210   -1.7380    4.4510 ho        1 MOL      0.396762
    189 H86        -2.6830   -0.4640    3.8670 ho        1 MOL      0.396762
    190 O30        -2.6970   -4.2470    2.5710 oh        1 MOL     -0.830931
    191 H87        -2.3780   -5.0990    2.8790 ho        1 MOL      0.396762
    192 H88        -1.9940   -3.9070    2.0210 ho        1 MOL      0.396762
@<TRIPOS>BOND
     1    1    2 1   
     2    1    4 1   
     3    1    5 1   
     4    1    6 1   
     5    2    3 2   
     6    2    7 1   
     7    7    8 1   
     8    7   15 1   
     9    8    9 1   
    10    8   11 1   
    11    8   16 1   
    12    9   10 2   
    13    9   19 1   
    14   11   12 1   
    15   11   17 1   
    16   11   18 1   
    17   12   13 1   
    18   12   14 1   
    19   19   20 1   
    20   19   27 1   
    21   20   21 1   
    22   20   23 1   
    23   20   28 1   
    24   21   22 2   
    25   21   38 1   
    26   23   24 1   
    27   23   25 1   
    28   23   29 1   
    29   24   26 1   
    30   24   30 1   
    31   24   31 1   
    32   25   32 1   
    33   25   33 1   
    34   25   34 1   
    35   26   35 1   
    36   26   36 1   
    37   26   37 1   
    38   38   39 1   
    39   38   46 1   
    40   39   40 1   
    41   39   42 1   
    42   39   47 1   
    43   40   41 2   
    44   40   50 1   
    45   42   43 1   
    46   42   48 1   
    47   42   49 1   
    48   43   44 1   
    49   43   45 1   
    50   50   51 1   
    51   50   54 1   
    52   51   52 1   
    53   51   55 1   
    54   51   56 1   
    55   52   53 2   
    56   52   57 1   
    57   57   58 1   
    58   57   65 1   
    59   58   59 1   
    60   58   61 1   
    61   58   66 1   
    62   59   60 2   
    63   59   69 1   
    64   61   62 1   
    65   61   67 1   
    66   61   68 1   
    67   62   63 1   
    68   62   64 1   
    69   69   70 1   
    70   69   73 1   
    71   70   71 1   
    72   70   74 1   
    73   70   75 1   
    74   71   72 2   
    75   71   76 1   
    76   76   77 1   
    77   76   85 1   
    78   77   78 1   
    79   77   80 1   
    80   77   86 1   
    81   78   79 2   
    82   78   93 1   
    83   80   81 1   
    84   80   87 1   
    85   80   88 1   
    86   81   82 1   
    87   81   89 1   
    88   81   90 1   
    89   82   83 1   
    90   82   84 2   
    91   83   91 1   
    92   83   92 1   
    93   93   94 1   
    94   93  100 1   
    95   94   95 1   
    96   94   97 1   
    97   94  101 1   
    98   95   96 2   
    99   95  109 1   
   100   97   98 1   
   101   97   99 1   
   102   97  102 1   
   103   98  103 1   
   104   98  104 1   
   105   98  105 1   
   106   99  106 1   
   107   99  107 1   
   108   99  108 1   
   109  109  110 1   
   110  109  117 1   
   111  110  111 1   
   112  110  113 1   
   113  110  118 1   
   114  111  112 2   
   115  111  123 1   
   116  113  114 1   
   117  113  119 1   
   118  113  120 1   
   119  114  115 1   
   120  114  116 2   
   121  115  121 1   
   122  115  122 1   
   123  123  124 1   
   124  123  135 1   
   125  124  125 1   
   126  124  127 1   
   127  124  136 1   
   128  125  126 2   
   129  125  144 1   
   130  127  128 1   
   131  127  137 1   
   132  127  138 1   
   133  128  129 ar  
   134  128  130 ar  
   135  129  131 ar  
   136  129  139 1   
   137  130  132 ar  
   138  130  140 1   
   139  131  133 ar  
   140  131  141 1   
   141  132  133 ar  
   142  132  142 1   
   143  133  134 1   
   144  134  143 1   
   145  144  145 1   
   146  144  153 1   
   147  145  146 1   
   148  145  148 1   
   149  145  154 1   
   150  146  147 2   
   151  146  159 1   
   152  148  149 1   
   153  148  155 1   
   154  148  156 1   
   155  149  150 1   
   156  149  157 1   
   157  149  158 1   
   158  150  151 1   
   159  150  152 1   
   160  159  160 1   
   161  159  168 1   
   162  160  161 1   
   163  160  163 1   
   164  160  169 1   
   165  161  162 2   
   166  161  174 1   
   167  163  164 1   
   168  163  170 1   
   169  163  171 1   
   170  164  165 1   
   171  164  172 1   
   172  164  173 1   
   173  165  166 1   
   174  165  167 1   
   175  174  175 1   
   176  174  179 1   
   177  175  176 1   
   178  175  177 1   
   179  175  178 1   
   180  181  182 1   
   181  181  183 1   
   182  184  185 1   
   183  184  186 1   
   184  187  188 1   
   185  187  189 1   
   186  190  191 1   
   187  190  192 1   
@<TRIPOS>SUBSTRUCTURE
     1 MOL         1 TEMP              0 ****  ****    0 ROOT
