@<TRIPOS>MOLECULE
MOL
  186   183     1     0     0
SMALL
resp


@<TRIPOS>ATOM
      1 C1          4.7860    3.6270   -3.7970 c3        1 MOL     -0.469216
      2 C2          5.4890    3.2090   -2.5040 c         1 MOL      0.966076
      3 O1          4.9040    3.1770   -1.4530 o         1 MOL     -0.736840
      4 H1          5.1540    4.6050   -4.1100 hc        1 MOL      0.114055
      5 H2          4.9950    2.8950   -4.5770 hc        1 MOL      0.114055
      6 H3          3.7120    3.6810   -3.6270 hc        1 MOL      0.114055
      7 N1          6.7670    2.7880   -2.6130 n         1 MOL     -0.686111
      8 C3          7.4610    1.7980   -1.7690 c3        1 MOL      0.117474
      9 C4          6.5760    0.5640   -1.4770 c         1 MOL      0.321542
     10 O2          6.0840    0.3260   -0.3730 o         1 MOL     -0.415313
     11 C5          8.2270    2.5080   -0.5750 c3        1 MOL      0.003622
     12 C6          7.5570    3.6940   -0.0350 c         1 MOL      0.663075
     13 O3          6.6180    3.6030    0.8410 o         1 MOL     -0.702855
     14 O4          8.0780    4.7940   -0.2780 o         1 MOL     -0.702855
     15 H4          7.1590    3.0000   -3.5280 hn        1 MOL      0.309688
     16 H5          8.3550    1.5080   -2.3080 h1        1 MOL      0.042956
     17 H6          9.1980    2.8970   -0.8840 hc        1 MOL     -0.000132
     18 H7          8.5660    1.7750    0.1570 hc        1 MOL     -0.000132
     19 N2          6.1110   -0.0860   -2.5520 n         1 MOL     -0.341961
     20 C7          5.4770   -1.4040   -2.6820 c3        1 MOL     -0.015703
     21 C8          6.2200   -2.5470   -2.0220 c         1 MOL      0.520039
     22 O5          6.9380   -3.3060   -2.6800 o         1 MOL     -0.570142
     23 C9          3.9260   -1.3260   -2.4160 c3        1 MOL      0.114900
     24 C10         3.2320   -2.5050   -3.1620 c3        1 MOL      0.126989
     25 C11         3.3670    0.0720   -2.9340 c3        1 MOL     -0.256223
     26 C12         3.1750   -2.3880   -4.7540 c3        1 MOL     -0.337363
     27 H8          6.4620    0.3280   -3.4110 hn        1 MOL      0.241009
     28 H9          5.6400   -1.7140   -3.7170 h1        1 MOL      0.043956
     29 H10         3.7130   -1.4820   -1.3590 hc        1 MOL     -0.121682
     30 H11         2.1980   -2.5470   -2.8160 hc        1 MOL      0.003222
     31 H12         3.7370   -3.3840   -2.7660 hc        1 MOL      0.003222
     32 H13         2.3370    0.0700   -3.2790 hc        1 MOL      0.058280
     33 H14         3.4650    0.8450   -2.1570 hc        1 MOL      0.058280
     34 H15         3.8990    0.4280   -3.8170 hc        1 MOL      0.058280
     35 H16         2.6380   -1.4640   -4.9640 hc        1 MOL      0.072795
     36 H17         4.1520   -2.3290   -5.2440 hc        1 MOL      0.072795
     37 H18         2.6060   -3.2580   -5.0590 hc        1 MOL      0.072795
     38 N3          6.0840   -2.6170   -0.6620 n         1 MOL     -0.248035
     39 C13         6.7070   -3.5020    0.3300 c3        1 MOL      0.080318
     40 C14         5.8290   -4.7200    0.7740 c         1 MOL      0.589030
     41 O6          6.2100   -5.7850    0.3940 o         1 MOL     -0.571008
     42 C15         7.3520   -2.6590    1.4050 c3        1 MOL     -0.214430
     43 C16         8.1930   -3.5040    2.3920 c         1 MOL      0.723120
     44 O7          9.4200   -3.5990    2.3970 o         1 MOL     -0.727649
     45 O8          7.5240   -4.0520    3.3050 o         1 MOL     -0.727649
     46 H19         5.7250   -1.7670   -0.2480 hn        1 MOL      0.206565
     47 H20         7.6150   -4.0040   -0.0120 h1        1 MOL      0.047568
     48 H21         6.5340   -2.2420    1.9990 hc        1 MOL      0.032881
     49 H22         7.9910   -1.8780    0.9920 hc        1 MOL      0.032881
     50 N4          4.6160   -4.6160    1.3310 n         1 MOL     -0.550585
     51 C17         3.8860   -3.3790    1.7400 c3        1 MOL     -0.038892
     52 C18         2.7880   -3.6100    2.7760 c         1 MOL      0.769271
     53 O9          2.4410   -4.7560    3.0760 o         1 MOL     -0.617420
     54 H23         4.1460   -5.4970    1.4750 hn        1 MOL      0.303243
     55 H24         3.3790   -2.9760    0.8570 h1        1 MOL      0.099184
     56 H25         4.6020   -2.6730    2.1590 h1        1 MOL      0.099184
     57 N5          2.2080   -2.5790    3.3680 n         1 MOL     -0.804294
     58 C19         2.3480   -1.1170    3.1660 c3        1 MOL      0.601211
     59 C20         2.4400   -0.6950    1.6840 c         1 MOL     -0.124968
     60 O10         3.5170   -0.3960    1.1850 o         1 MOL     -0.385693
     61 C21         3.3240   -0.5260    4.2250 c3        1 MOL     -0.482815
     62 C22         3.4350    0.9940    4.2260 c         1 MOL      0.731298
     63 O11         3.7750    1.5150    5.3190 o         1 MOL     -0.691848
     64 O12         3.2340    1.6760    3.2040 o         1 MOL     -0.691848
     65 H26         1.5960   -2.8370    4.1260 hn        1 MOL      0.344496
     66 H27         1.3640   -0.7860    3.4850 h1        1 MOL      0.013779
     67 H28         4.3360   -0.8760    4.0310 hc        1 MOL      0.126811
     68 H29         2.9930   -0.9060    5.1950 hc        1 MOL      0.126811
     69 N6          1.4170   -0.8130    0.8550 n         1 MOL     -0.080141
     70 C23         0.0190   -1.2540    1.1870 c3        1 MOL     -0.047350
     71 C24        -0.3600   -2.5580    0.4700 c         1 MOL      0.462230
     72 O13         0.2990   -2.9170   -0.4980 o         1 MOL     -0.481930
     73 H30         1.6670   -0.5420   -0.0810 hn        1 MOL      0.279652
     74 H31        -0.7750   -0.5340    0.9980 h1        1 MOL      0.077955
     75 H32        -0.1240   -1.4080    2.2560 h1        1 MOL      0.077955
     76 N7         -1.4390   -3.2600    0.8970 n         1 MOL     -0.485181
     77 C25        -1.7460   -4.5780    0.2800 c3        1 MOL      0.149583
     78 C26        -2.4160   -4.4750   -1.1720 c         1 MOL      0.257684
     79 O14        -2.4380   -5.4470   -1.9110 o         1 MOL     -0.503466
     80 C27        -2.6510   -5.4670    1.1510 c3        1 MOL     -0.062717
     81 C28        -3.8350   -4.7730    1.8620 c3        1 MOL      0.032109
     82 C29        -4.8780   -4.0700    1.0040 c         1 MOL      0.576437
     83 N8         -5.9470   -4.6950    0.6340 n         1 MOL     -0.625680
     84 O15        -4.7390   -2.9220    0.6110 o         1 MOL     -0.640960
     85 H33        -2.0270   -2.8600    1.6050 hn        1 MOL      0.289829
     86 H34        -0.7870   -5.0730    0.1420 h1        1 MOL      0.112298
     87 H35        -1.8900   -5.7830    1.8610 hc        1 MOL      0.026532
     88 H36        -2.8870   -6.3440    0.5540 hc        1 MOL      0.026532
     89 H37        -3.4170   -4.0800    2.5950 hc        1 MOL      0.002632
     90 H38        -4.3700   -5.4890    2.4870 hc        1 MOL      0.002632
     91 H39        -6.2060   -5.5450    1.1120 hn        1 MOL      0.317469
     92 H40        -6.6000   -4.2330    0.0230 hn        1 MOL      0.317469
     93 N9         -2.8860   -3.3100   -1.5770 n         1 MOL      0.060468
     94 C30        -3.1910   -2.9190   -2.9690 c3        1 MOL     -0.485590
     95 C31        -4.5280   -2.1000   -3.0770 c         1 MOL      0.687961
     96 O16        -4.9940   -1.8150   -4.1440 o         1 MOL     -0.552830
     97 C32        -2.0070   -2.2470   -3.6700 c3        1 MOL      0.334006
     98 C33        -0.9010   -3.2510   -3.8760 c3        1 MOL     -0.330263
     99 C34        -1.3420   -1.0770   -3.0130 c3        1 MOL     -0.330263
    100 H41        -3.0400   -2.6220   -0.8580 hn        1 MOL      0.133801
    101 H42        -3.3440   -3.8060   -3.5850 h1        1 MOL      0.178445
    102 H43        -2.2910   -1.8600   -4.6420 hc        1 MOL     -0.004508
    103 H44        -0.3550   -3.4490   -2.9530 hc        1 MOL      0.083322
    104 H45        -1.3300   -4.1710   -4.2810 hc        1 MOL      0.083322
    105 H46        -0.1360   -2.8460   -4.5310 hc        1 MOL      0.083322
    106 H47        -2.0120   -0.2260   -3.1570 hc        1 MOL      0.083322
    107 H48        -1.0780   -1.1830   -1.9600 hc        1 MOL      0.083322
    108 H49        -0.4130   -0.8860   -3.5440 hc        1 MOL      0.083322
    109 N10        -5.2140   -1.6800   -1.9620 n         1 MOL     -0.565331
    110 C35        -6.5660   -1.1020   -2.0100 c3        1 MOL      0.092316
    111 C36        -6.6040    0.3470   -1.5630 c         1 MOL      0.682183
    112 O17        -7.5640    1.0240   -1.9060 o         1 MOL     -0.602089
    113 C37        -7.4060   -1.9010   -1.0160 c3        1 MOL     -0.320877
    114 C38        -7.9360   -3.2000   -1.6340 c         1 MOL      0.638298
    115 N11        -8.3870   -3.2310   -2.9070 n         1 MOL     -0.763825
    116 O18        -8.0880   -4.2320   -0.9850 o         1 MOL     -0.556622
    117 H50        -4.8670   -1.6990   -1.0140 hn        1 MOL      0.400984
    118 H51        -7.0520   -1.1320   -2.9850 h1        1 MOL      0.048033
    119 H52        -8.1760   -1.2250   -0.6530 hc        1 MOL      0.116606
    120 H53        -6.9080   -2.1600   -0.0890 hc        1 MOL      0.116606
    121 H54        -8.2540   -2.3870   -3.4350 hn        1 MOL      0.375481
    122 H55        -8.6880   -4.1460   -3.2240 hn        1 MOL      0.375481
    123 N12        -5.6440    0.8220   -0.7790 n         1 MOL     -0.612023
    124 C39        -5.9170    1.9630    0.1340 c3        1 MOL      0.290668
    125 C40        -4.5910    2.7790    0.2900 c         1 MOL      0.552377
    126 O19        -3.4800    2.2880   -0.0300 o         1 MOL     -0.510193
    127 C41        -6.3130    1.3700    1.5310 c3        1 MOL     -0.305158
    128 C42        -7.6540    0.5610    1.7030 ca        1 MOL      0.048106
    129 C43        -8.9200    1.1860    1.5660 ca        1 MOL     -0.110110
    130 C44        -7.5760   -0.8040    2.0610 ca        1 MOL     -0.110110
    131 C45       -10.0990    0.5080    1.8520 ca        1 MOL     -0.277819
    132 C46        -8.7750   -1.4960    2.2840 ca        1 MOL     -0.277819
    133 C47       -10.0290   -0.8540    2.2210 ca        1 MOL      0.375653
    134 O20       -11.1990   -1.4640    2.5800 oh        1 MOL     -0.531345
    135 H56        -4.9520    0.1410   -0.5150 hn        1 MOL      0.240700
    136 H57        -6.6400    2.6700   -0.2590 h1        1 MOL      0.025317
    137 H58        -6.4570    2.2270    2.1830 hc        1 MOL      0.148708
    138 H59        -5.4740    0.7750    1.8700 hc        1 MOL      0.148708
    139 H60        -8.8870    2.2470    1.3330 ha        1 MOL      0.118615
    140 H61        -6.6150   -1.2940    2.0830 ha        1 MOL      0.118615
    141 H62       -11.0130    1.0810    1.7450 ha        1 MOL      0.134144
    142 H63        -8.7250   -2.5620    2.4690 ha        1 MOL      0.134144
    143 H64       -11.9860   -0.9680    2.3460 ho        1 MOL      0.378940
    144 N13        -4.7210    4.0600    0.7290 n         1 MOL     -0.722042
    145 C48        -3.6520    5.0280    1.0650 c3        1 MOL      0.364355
    146 C49        -2.5760    5.2770    0.0710 c         1 MOL      0.082082
    147 O21        -1.9510    6.3380    0.2710 o         1 MOL     -0.486944
    148 C50        -3.0000    4.7030    2.4360 c3        1 MOL     -0.088468
    149 C51        -3.9840    4.6680    3.6200 c3        1 MOL     -0.236465
    150 C52        -3.3200    4.5150    5.0220 c         1 MOL      0.701972
    151 O22        -3.7360    5.3320    5.8900 o         1 MOL     -0.716810
    152 O23        -2.6640    3.4740    5.3010 o         1 MOL     -0.716810
    153 H65        -5.6730    4.3480    0.9240 hn        1 MOL      0.341174
    154 H66        -4.1970    5.9640    1.2040 h1        1 MOL      0.043283
    155 H67        -2.1420    5.3420    2.6530 hc        1 MOL      0.094782
    156 H68        -2.5400    3.7240    2.3330 hc        1 MOL      0.094782
    157 H69        -4.6060    3.7880    3.4330 hc        1 MOL      0.001828
    158 H70        -4.6100    5.5580    3.6540 hc        1 MOL      0.001828
    159 N14        -2.2260    4.4760   -0.9380 n         1 MOL     -0.052945
    160 C53        -1.0020    4.5810   -1.7710 c3        1 MOL      0.000400
    161 C54        -1.2110    5.4360   -3.0890 c         1 MOL      0.371410
    162 O24        -0.2320    5.9740   -3.6660 o         1 MOL     -0.526753
    163 C55        -0.5090    3.2790   -2.2180 c3        1 MOL      0.060861
    164 C56        -0.1250    2.2730   -1.0940 c3        1 MOL      0.076357
    165 C57         1.0610    2.7750   -0.2420 c         1 MOL      0.478923
    166 O25         1.0710    3.7900    0.4910 o         1 MOL     -0.560682
    167 O26         2.0690    2.0510   -0.1000 o         1 MOL     -0.560682
    168 H71        -2.7100    3.5860   -0.9890 hn        1 MOL      0.172637
    169 H72        -0.1560    5.0250   -1.2370 h1        1 MOL      0.097618
    170 H73         0.3940    3.3460   -2.8150 hc        1 MOL     -0.033359
    171 H74        -1.2720    2.7850   -2.8290 hc        1 MOL     -0.033359
    172 H75         0.1180    1.2690   -1.4210 hc        1 MOL     -0.047102
    173 H76        -0.9650    2.2270   -0.3960 hc        1 MOL     -0.047102
    174 N15        -2.4480    5.5930   -3.5330 n         1 MOL     -0.088014
    175 C58        -2.9190    6.2190   -4.7080 c3        1 MOL     -0.351747
    176 H77        -2.6130    7.2650   -4.7090 h1        1 MOL      0.119786
    177 H78        -2.5010    5.7180   -5.5810 h1        1 MOL      0.119786
    178 H79        -4.0070    6.1590   -4.7410 h1        1 MOL      0.119786
    179 H80        -3.1220    5.0770   -2.9740 hn        1 MOL      0.149777
    180 Ca1         4.4380    2.0930    0.8650 Ca        1 MOL      1.757725
    181 O27         6.3320    0.9730    2.4310 oh        1 MOL     -0.925579
    182 H81         6.9880    1.6400    2.6240 ho        1 MOL      0.418013
    183 H82         6.7180    0.1540    2.7510 ho        1 MOL      0.418013
    184 O28         3.3060    4.3400    1.6490 oh        1 MOL     -0.925579
    185 H83         3.5330    5.1700    2.0680 ho        1 MOL      0.418013
    186 H84         2.5110    4.5410    1.1600 ho        1 MOL      0.418013
@<TRIPOS>BOND
     1    1    2 1   
     2    1    4 1   
     3    1    5 1   
     4    1    6 1   
     5    2    3 2   
     6    2    7 1   
     7    7    8 1   
     8    7   15 1   
     9    8    9 1   
    10    8   11 1   
    11    8   16 1   
    12    9   10 2   
    13    9   19 1   
    14   11   12 1   
    15   11   17 1   
    16   11   18 1   
    17   12   13 1   
    18   12   14 1   
    19   19   20 1   
    20   19   27 1   
    21   20   21 1   
    22   20   23 1   
    23   20   28 1   
    24   21   22 2   
    25   21   38 1   
    26   23   24 1   
    27   23   25 1   
    28   23   29 1   
    29   24   26 1   
    30   24   30 1   
    31   24   31 1   
    32   25   32 1   
    33   25   33 1   
    34   25   34 1   
    35   26   35 1   
    36   26   36 1   
    37   26   37 1   
    38   38   39 1   
    39   38   46 1   
    40   39   40 1   
    41   39   42 1   
    42   39   47 1   
    43   40   41 2   
    44   40   50 1   
    45   42   43 1   
    46   42   48 1   
    47   42   49 1   
    48   43   44 1   
    49   43   45 1   
    50   50   51 1   
    51   50   54 1   
    52   51   52 1   
    53   51   55 1   
    54   51   56 1   
    55   52   53 2   
    56   52   57 1   
    57   57   58 1   
    58   57   65 1   
    59   58   59 1   
    60   58   61 1   
    61   58   66 1   
    62   59   60 2   
    63   59   69 1   
    64   61   62 1   
    65   61   67 1   
    66   61   68 1   
    67   62   63 1   
    68   62   64 1   
    69   69   70 1   
    70   69   73 1   
    71   70   71 1   
    72   70   74 1   
    73   70   75 1   
    74   71   72 2   
    75   71   76 1   
    76   76   77 1   
    77   76   85 1   
    78   77   78 1   
    79   77   80 1   
    80   77   86 1   
    81   78   79 2   
    82   78   93 1   
    83   80   81 1   
    84   80   87 1   
    85   80   88 1   
    86   81   82 1   
    87   81   89 1   
    88   81   90 1   
    89   82   83 1   
    90   82   84 2   
    91   83   91 1   
    92   83   92 1   
    93   93   94 1   
    94   93  100 1   
    95   94   95 1   
    96   94   97 1   
    97   94  101 1   
    98   95   96 2   
    99   95  109 1   
   100   97   98 1   
   101   97   99 1   
   102   97  102 1   
   103   98  103 1   
   104   98  104 1   
   105   98  105 1   
   106   99  106 1   
   107   99  107 1   
   108   99  108 1   
   109  109  110 1   
   110  109  117 1   
   111  110  111 1   
   112  110  113 1   
   113  110  118 1   
   114  111  112 2   
   115  111  123 1   
   116  113  114 1   
   117  113  119 1   
   118  113  120 1   
   119  114  115 1   
   120  114  116 2   
   121  115  121 1   
   122  115  122 1   
   123  123  124 1   
   124  123  135 1   
   125  124  125 1   
   126  124  127 1   
   127  124  136 1   
   128  125  126 2   
   129  125  144 1   
   130  127  128 1   
   131  127  137 1   
   132  127  138 1   
   133  128  129 ar  
   134  128  130 ar  
   135  129  131 ar  
   136  129  139 1   
   137  130  132 ar  
   138  130  140 1   
   139  131  133 ar  
   140  131  141 1   
   141  132  133 ar  
   142  132  142 1   
   143  133  134 1   
   144  134  143 1   
   145  144  145 1   
   146  144  153 1   
   147  145  146 1   
   148  145  148 1   
   149  145  154 1   
   150  146  147 2   
   151  146  159 1   
   152  148  149 1   
   153  148  155 1   
   154  148  156 1   
   155  149  150 1   
   156  149  157 1   
   157  149  158 1   
   158  150  151 1   
   159  150  152 1   
   160  159  160 1   
   161  159  168 1   
   162  160  161 1   
   163  160  163 1   
   164  160  169 1   
   165  161  162 2   
   166  161  174 1   
   167  163  164 1   
   168  163  170 1   
   169  163  171 1   
   170  164  165 1   
   171  164  172 1   
   172  164  173 1   
   173  165  166 1   
   174  165  167 1   
   175  174  175 1   
   176  174  179 1   
   177  175  176 1   
   178  175  177 1   
   179  175  178 1   
   180  181  182 1   
   181  181  183 1   
   182  184  185 1   
   183  184  186 1   
@<TRIPOS>SUBSTRUCTURE
     1 MOL         1 TEMP              0 ****  ****    0 ROOT
