@<TRIPOS>MOLECULE
MOL
  198   191     1     0     0
SMALL
resp


@<TRIPOS>ATOM
      1 C1          2.5600    2.6860    1.0830 c3        1 MOL     -0.022922
      2 C2          1.3300    3.3000    0.3960 c         1 MOL      0.346167
      3 O1          0.1850    2.9120    0.7010 o         1 MOL     -0.458208
      4 H1          2.4080    2.6820    2.1630 hc        1 MOL     -0.022435
      5 H2          2.7000    1.6640    0.7340 hc        1 MOL     -0.022435
      6 H3          3.4440    3.2780    0.8440 hc        1 MOL     -0.022435
      7 N1          1.6430    4.2080   -0.5730 n         1 MOL     -0.369972
      8 C3          0.6010    4.7560   -1.5000 c3        1 MOL     -0.065321
      9 C4         -0.7760    5.1170   -0.8530 c         1 MOL      0.569553
     10 O2         -1.8560    4.7570   -1.3020 o         1 MOL     -0.503300
     11 C5          0.6250    3.9320   -2.8160 c3        1 MOL      0.104278
     12 C6         -0.1530    4.5390   -3.9070 c         1 MOL      0.566409
     13 O3         -0.7940    3.7130   -4.6560 o         1 MOL     -0.588533
     14 O4         -0.0560    5.8050   -4.1120 o         1 MOL     -0.588533
     15 H4          2.6270    4.3490   -0.7380 hn        1 MOL      0.287291
     16 H5          0.9590    5.7140   -1.8870 h1        1 MOL      0.028768
     17 H6          0.1830    2.9950   -2.4920 hc        1 MOL     -0.009448
     18 H7          1.6650    3.7800   -3.1320 hc        1 MOL     -0.009448
     19 N2         -0.7770    5.6910    0.3140 n         1 MOL     -0.364695
     20 C7         -2.0030    5.9540    1.1010 c3        1 MOL     -0.306511
     21 C8         -2.9740    6.9520    0.3280 c         1 MOL      0.588367
     22 O5         -2.5600    7.7540   -0.4390 o         1 MOL     -0.540644
     23 C9         -1.5690    6.4510    2.4490 c3        1 MOL      0.245260
     24 C10        -0.6730    7.6880    2.3500 c3        1 MOL     -0.044948
     25 C11        -0.8320    5.3050    3.2510 c3        1 MOL     -0.275343
     26 C12        -0.5720    8.6160    3.5490 c3        1 MOL     -0.076149
     27 H8          0.1360    5.9890    0.6290 hn        1 MOL      0.227757
     28 H9         -2.5450    5.0100    1.1660 h1        1 MOL      0.176627
     29 H10        -2.4480    6.7160    3.0290 hc        1 MOL      0.040315
     30 H11        -1.1700    8.2500    1.5600 hc        1 MOL      0.030437
     31 H12         0.3210    7.4540    1.9850 hc        1 MOL      0.030437
     32 H13        -0.6050    5.7520    4.2190 hc        1 MOL      0.063339
     33 H14        -1.5650    4.4950    3.3130 hc        1 MOL      0.063339
     34 H15         0.0950    5.1480    2.7080 hc        1 MOL      0.063339
     35 H16        -1.5290    8.5980    4.0640 hc        1 MOL     -0.001563
     36 H17         0.1240    8.2220    4.3010 hc        1 MOL     -0.001563
     37 H18        -0.1220    9.5720    3.2500 hc        1 MOL     -0.001563
     38 N3         -4.2710    6.9350    0.5750 n         1 MOL     -0.542015
     39 C13        -5.0070    6.0560    1.5620 c3        1 MOL      0.180187
     40 C14        -5.2810    4.6410    0.9580 c         1 MOL      0.360775
     41 O6         -5.6910    3.7770    1.7760 o         1 MOL     -0.548076
     42 C15        -6.3520    6.6450    1.9480 c3        1 MOL     -0.263037
     43 C16        -7.3270    6.9840    0.7970 c         1 MOL      0.815731
     44 O7         -6.8330    6.9320   -0.3370 o         1 MOL     -0.680903
     45 O8         -8.4270    7.5040    1.0100 o         1 MOL     -0.680903
     46 H19        -4.7530    7.6340    0.0300 hn        1 MOL      0.322067
     47 H20        -4.5040    5.9330    2.5240 h1        1 MOL      0.016566
     48 H21        -6.1600    7.5400    2.5310 hc        1 MOL      0.043221
     49 H22        -6.7850    5.8980    2.6130 hc        1 MOL      0.043221
     50 N4         -5.0890    4.5050   -0.3180 n         1 MOL     -0.172921
     51 C17        -5.0310    3.2280   -1.0940 c3        1 MOL     -0.243076
     52 C18        -6.3830    2.5050   -1.3450 c         1 MOL      0.561055
     53 O9         -7.4820    2.8980   -0.9850 o         1 MOL     -0.541470
     54 H23        -4.9760    5.3730   -0.8230 hn        1 MOL      0.311854
     55 H24        -4.5150    2.4830   -0.4940 h1        1 MOL      0.139670
     56 H25        -4.4970    3.2820   -2.0460 h1        1 MOL      0.139670
     57 N5         -6.2020    1.4050   -2.0620 n         1 MOL     -0.324424
     58 C19        -7.2230    0.5020   -2.7010 c3        1 MOL     -0.039950
     59 C20        -8.0520   -0.2490   -1.6160 c         1 MOL      0.415014
     60 O10        -9.0840   -0.9340   -1.9040 o         1 MOL     -0.590726
     61 C21        -6.5190   -0.4670   -3.6670 c3        1 MOL     -0.258151
     62 C22        -5.4050   -1.2910   -2.8900 c         1 MOL      0.669137
     63 O11        -4.2260   -0.9210   -2.9120 o         1 MOL     -0.638624
     64 O12        -5.6650   -2.2680   -2.1660 o         1 MOL     -0.638624
     65 H26        -5.2320    1.1170   -2.1270 hn        1 MOL      0.198497
     66 H27        -7.9890    1.0500   -3.2470 h1        1 MOL      0.123203
     67 H28        -6.1030    0.0830   -4.5060 hc        1 MOL      0.070815
     68 H29        -7.2550   -1.1780   -4.0480 hc        1 MOL      0.070815
     69 N6         -7.7120   -0.2340   -0.3410 n         1 MOL     -0.053815
     70 C23        -8.2700   -0.9300    0.8220 c3        1 MOL     -0.485830
     71 C24        -8.0380   -2.4350    1.0530 c         1 MOL      0.663394
     72 O13        -8.4680   -2.9760    2.1080 o         1 MOL     -0.633084
     73 H30        -6.8380    0.2610   -0.1930 hn        1 MOL      0.218527
     74 H31        -9.3570   -0.8640    0.7500 h1        1 MOL      0.179031
     75 H32        -7.9260   -0.4110    1.7210 h1        1 MOL      0.179031
     76 N7         -7.4220   -3.1550    0.1060 n         1 MOL      0.006435
     77 C25        -7.3860   -4.6110    0.0860 c3        1 MOL     -0.143917
     78 C26        -6.5970   -5.2650    1.1770 c         1 MOL      0.368431
     79 O14        -6.6690   -6.4580    1.2920 o         1 MOL     -0.520930
     80 C27        -8.8040   -5.2280   -0.2130 c3        1 MOL      0.098441
     81 C28        -9.4690   -4.6380   -1.4980 c3        1 MOL     -0.368339
     82 C29        -8.5100   -4.5830   -2.6370 c         1 MOL      0.725626
     83 N8         -8.1970   -3.3910   -3.1980 n         1 MOL     -0.907784
     84 O15        -8.0490   -5.5840   -3.1640 o         1 MOL     -0.610398
     85 H33        -7.0130   -2.6040   -0.6450 hn        1 MOL     -0.002875
     86 H34        -6.7980   -4.8930   -0.7780 h1        1 MOL      0.191735
     87 H35        -9.5000   -4.9760    0.5900 hc        1 MOL      0.024252
     88 H36        -8.7640   -6.3070   -0.2970 hc        1 MOL      0.024252
     89 H37        -9.7440   -3.6060   -1.2550 hc        1 MOL      0.087028
     90 H38       -10.3320   -5.2220   -1.8360 hc        1 MOL      0.087028
     91 H39        -8.6830   -2.5920   -2.8080 hn        1 MOL      0.408263
     92 H40        -7.4490   -3.2850   -3.8810 hn        1 MOL      0.408263
     93 N9         -5.8240   -4.5120    1.9020 n         1 MOL     -0.161200
     94 C30        -5.0670   -4.9560    3.0400 c3        1 MOL     -0.052910
     95 C31        -3.5430   -4.6100    3.0540 c         1 MOL      0.593295
     96 O16        -2.8410   -5.0370    3.9540 o         1 MOL     -0.566708
     97 C32        -5.6940   -4.5850    4.3590 c3        1 MOL      0.488351
     98 C33        -5.7290   -3.1170    4.5050 c3        1 MOL     -0.336491
     99 C34        -7.0770   -5.2210    4.5420 c3        1 MOL     -0.336491
    100 H41        -5.9110   -3.5190    1.7630 hn        1 MOL      0.144177
    101 H42        -4.8710   -6.0190    3.1430 h1        1 MOL      0.045137
    102 H43        -5.0670   -4.9420    5.1840 hc        1 MOL     -0.096235
    103 H44        -5.9050   -2.7960    5.5290 hc        1 MOL      0.062454
    104 H45        -4.7140   -2.7790    4.2820 hc        1 MOL      0.062454
    105 H46        -6.4220   -2.6600    3.7900 hc        1 MOL      0.062454
    106 H47        -6.9880   -6.3020    4.6780 hc        1 MOL      0.062454
    107 H48        -7.4250   -4.6680    5.4070 hc        1 MOL      0.062454
    108 H49        -7.7560   -4.9190    3.7450 hc        1 MOL      0.062454
    109 N10        -3.0710   -3.7890    2.0670 n         1 MOL     -0.594746
    110 C35        -1.9020   -2.8950    2.0450 c3        1 MOL      0.563188
    111 C36        -1.1280   -2.8600    0.7760 c         1 MOL      0.293605
    112 O17        -1.6050   -3.1960   -0.3140 o         1 MOL     -0.467391
    113 C37        -2.3190   -1.5630    2.6150 c3        1 MOL     -0.328852
    114 C38        -1.2180   -0.7620    3.3100 c         1 MOL      0.680455
    115 N11        -0.8030    0.3500    2.7400 n         1 MOL     -0.760208
    116 O18        -0.6170   -1.2190    4.3030 o         1 MOL     -0.597960
    117 H50        -3.7170   -3.6810    1.2920 hn        1 MOL      0.227338
    118 H51        -1.1510   -3.3300    2.7150 h1        1 MOL     -0.048489
    119 H52        -3.0540   -1.6790    3.4130 hc        1 MOL      0.072991
    120 H53        -2.7850   -0.9690    1.8310 hc        1 MOL      0.072991
    121 H54        -1.3090    0.7070    1.9460 hn        1 MOL      0.354428
    122 H55         0.0420    0.8450    2.9880 hn        1 MOL      0.354428
    123 N12         0.1200   -2.3770    0.8870 n         1 MOL     -0.288895
    124 C39         0.9600   -1.9860   -0.1290 c3        1 MOL     -0.035690
    125 C40         2.4030   -2.5900    0.0640 c         1 MOL      0.527588
    126 O19         3.1410   -2.2680    0.9680 o         1 MOL     -0.529750
    127 C41         0.8720   -0.4460   -0.2690 c3        1 MOL     -0.056209
    128 C42         1.5200    0.0580   -1.4990 ca        1 MOL     -0.052858
    129 C43         2.8840    0.2980   -1.5970 ca        1 MOL     -0.101070
    130 C44         0.7090    0.2740   -2.6290 ca        1 MOL     -0.101070
    131 C45         3.4750    0.8180   -2.8000 ca        1 MOL     -0.276250
    132 C46         1.3010    0.8030   -3.8140 ca        1 MOL     -0.276250
    133 C47         2.6920    1.1490   -3.8630 ca        1 MOL      0.339282
    134 O20         3.1990    1.3830   -5.0200 oh        1 MOL     -0.408897
    135 H56         0.4980   -2.3130    1.8200 hn        1 MOL      0.247075
    136 H57         0.5490   -2.3020   -1.0870 h1        1 MOL      0.146470
    137 H58         1.3240   -0.0220    0.6380 hc        1 MOL      0.082699
    138 H59        -0.1530   -0.1170   -0.1230 hc        1 MOL      0.082699
    139 H60         3.5200    0.1450   -0.7350 ha        1 MOL      0.154435
    140 H61        -0.3680    0.2540   -2.6180 ha        1 MOL      0.154435
    141 H62         4.5460    0.8530   -2.8300 ha        1 MOL      0.150040
    142 H63         0.7130    0.9300   -4.7090 ha        1 MOL      0.150040
    143 H64         4.1240    1.6380   -4.9270 ho        1 MOL      0.308890
    144 N13         2.7170   -3.5640   -0.8360 n         1 MOL     -0.549746
    145 C48         4.0850   -4.1180   -1.0620 c3        1 MOL      0.322477
    146 C49         5.0140   -3.2170   -1.8980 c         1 MOL      0.598788
    147 O21         4.7340   -2.8640   -3.0810 o         1 MOL     -0.540899
    148 C50         3.8890   -5.5430   -1.6960 c3        1 MOL      0.201461
    149 C51         5.1130   -6.4340   -1.5860 c3        1 MOL     -0.329549
    150 C52         4.7370   -7.9060   -1.9190 c         1 MOL      0.698006
    151 O22         4.5630   -8.2880   -3.0610 o         1 MOL     -0.611371
    152 O23         4.5530   -8.7810   -1.0340 o         1 MOL     -0.611371
    153 H65         2.1040   -3.8140   -1.5890 hn        1 MOL      0.246141
    154 H66         4.5150   -4.1460   -0.0550 h1        1 MOL     -0.111377
    155 H67         3.5830   -5.4340   -2.7330 hc        1 MOL     -0.016011
    156 H68         3.1630   -6.0430   -1.0510 hc        1 MOL     -0.016011
    157 H69         5.5210   -6.4840   -0.5790 hc        1 MOL      0.072944
    158 H70         5.8040   -6.0430   -2.3340 hc        1 MOL      0.072944
    159 N14         6.2110   -2.9170   -1.3800 n         1 MOL     -1.099619
    160 C53         6.4380   -2.6020    0.0240 c3        1 MOL      1.058033
    161 C54         6.7970   -3.8130    0.8650 c         1 MOL      0.440635
    162 O24         7.5060   -4.8130    0.5190 o         1 MOL     -0.558338
    163 C55         7.5110   -1.5070    0.2410 c3        1 MOL     -0.265263
    164 C56         8.9870   -1.8610   -0.1130 c3        1 MOL     -0.319169
    165 C57         9.8100   -0.5190   -0.2810 c         1 MOL      0.840589
    166 O25        10.3690   -0.0860    0.7410 o         1 MOL     -0.683488
    167 O26        10.0120   -0.0120   -1.4360 o         1 MOL     -0.683488
    168 H71         6.8800   -2.6830   -2.0990 hn        1 MOL      0.465124
    169 H72         5.4860   -2.2310    0.4020 h1        1 MOL     -0.135354
    170 H73         7.5020   -1.2410    1.2970 hc        1 MOL     -0.059505
    171 H74         7.2710   -0.6000   -0.3190 hc        1 MOL     -0.059505
    172 H75         9.0260   -2.3680   -1.0810 hc        1 MOL      0.062460
    173 H76         9.4490   -2.4150    0.7070 hc        1 MOL      0.062460
    174 N15         6.2680   -3.7620    2.1430 n         1 MOL     -0.203280
    175 C58         6.7500   -4.6150    3.3120 c3        1 MOL     -0.442915
    176 H77         6.2240   -4.3190    4.2180 h1        1 MOL      0.153122
    177 H78         6.5500   -5.6660    3.1020 h1        1 MOL      0.153122
    178 H79         7.8220   -4.4700    3.4510 h1        1 MOL      0.153122
    179 H80         5.5810   -3.0420    2.3430 hn        1 MOL      0.210047
    180 Ca1        12.1150    1.7710    0.9860 Ca        1 MOL      1.413238
    181 O27        12.9270   -0.1900   -0.7240 oh        1 MOL     -0.794901
    182 H81        12.0950   -0.4030   -1.1360 ho        1 MOL      0.359144
    183 H82        13.4100   -1.0200   -0.6800 ho        1 MOL      0.359144
    184 O28        12.2170    2.5530   -1.4970 oh        1 MOL     -0.794901
    185 H83        11.4790    3.0900   -1.7630 ho        1 MOL      0.359144
    186 H84        12.6140    2.2610   -2.3190 ho        1 MOL      0.359144
    187 O29        12.1600    4.5910    0.4910 oh        1 MOL     -0.794901
    188 H85        12.7490    5.3350    0.5070 ho        1 MOL      0.359144
    189 H86        11.2860    4.9620    0.4260 ho        1 MOL      0.359144
    190 O30        13.0720   -0.2570    2.3810 oh        1 MOL     -0.794901
    191 H87        13.5940   -1.0140    2.1030 ho        1 MOL      0.359144
    192 H88        12.7560   -0.4840    3.2540 ho        1 MOL      0.359144
    193 O31        13.1020    2.7120    3.2950 oh        1 MOL     -0.794901
    194 H89        13.2930    2.1160    4.0310 ho        1 MOL      0.359144
    195 H90        13.5730    3.5140    3.5070 ho        1 MOL      0.359144
    196 O32        14.7530    2.3010    0.4710 oh        1 MOL     -0.794901
    197 H91        15.5780    1.9280    0.7800 ho        1 MOL      0.359144
    198 H92        14.8240    2.2930   -0.4750 ho        1 MOL      0.359144
@<TRIPOS>BOND
     1    1    2 1   
     2    1    4 1   
     3    1    5 1   
     4    1    6 1   
     5    2    3 2   
     6    2    7 1   
     7    7    8 1   
     8    7   15 1   
     9    8    9 1   
    10    8   11 1   
    11    8   16 1   
    12    9   10 2   
    13    9   19 1   
    14   11   12 1   
    15   11   17 1   
    16   11   18 1   
    17   12   13 1   
    18   12   14 1   
    19   19   20 1   
    20   19   27 1   
    21   20   21 1   
    22   20   23 1   
    23   20   28 1   
    24   21   22 2   
    25   21   38 1   
    26   23   24 1   
    27   23   25 1   
    28   23   29 1   
    29   24   26 1   
    30   24   30 1   
    31   24   31 1   
    32   25   32 1   
    33   25   33 1   
    34   25   34 1   
    35   26   35 1   
    36   26   36 1   
    37   26   37 1   
    38   38   39 1   
    39   38   46 1   
    40   39   40 1   
    41   39   42 1   
    42   39   47 1   
    43   40   41 2   
    44   40   50 1   
    45   42   43 1   
    46   42   48 1   
    47   42   49 1   
    48   43   44 1   
    49   43   45 1   
    50   50   51 1   
    51   50   54 1   
    52   51   52 1   
    53   51   55 1   
    54   51   56 1   
    55   52   53 2   
    56   52   57 1   
    57   57   58 1   
    58   57   65 1   
    59   58   59 1   
    60   58   61 1   
    61   58   66 1   
    62   59   60 2   
    63   59   69 1   
    64   61   62 1   
    65   61   67 1   
    66   61   68 1   
    67   62   63 1   
    68   62   64 1   
    69   69   70 1   
    70   69   73 1   
    71   70   71 1   
    72   70   74 1   
    73   70   75 1   
    74   71   72 2   
    75   71   76 1   
    76   76   77 1   
    77   76   85 1   
    78   77   78 1   
    79   77   80 1   
    80   77   86 1   
    81   78   79 2   
    82   78   93 1   
    83   80   81 1   
    84   80   87 1   
    85   80   88 1   
    86   81   82 1   
    87   81   89 1   
    88   81   90 1   
    89   82   83 1   
    90   82   84 2   
    91   83   91 1   
    92   83   92 1   
    93   93   94 1   
    94   93  100 1   
    95   94   95 1   
    96   94   97 1   
    97   94  101 1   
    98   95   96 2   
    99   95  109 1   
   100   97   98 1   
   101   97   99 1   
   102   97  102 1   
   103   98  103 1   
   104   98  104 1   
   105   98  105 1   
   106   99  106 1   
   107   99  107 1   
   108   99  108 1   
   109  109  110 1   
   110  109  117 1   
   111  110  111 1   
   112  110  113 1   
   113  110  118 1   
   114  111  112 2   
   115  111  123 1   
   116  113  114 1   
   117  113  119 1   
   118  113  120 1   
   119  114  115 1   
   120  114  116 2   
   121  115  121 1   
   122  115  122 1   
   123  123  124 1   
   124  123  135 1   
   125  124  125 1   
   126  124  127 1   
   127  124  136 1   
   128  125  126 2   
   129  125  144 1   
   130  127  128 1   
   131  127  137 1   
   132  127  138 1   
   133  128  129 ar  
   134  128  130 ar  
   135  129  131 ar  
   136  129  139 1   
   137  130  132 ar  
   138  130  140 1   
   139  131  133 ar  
   140  131  141 1   
   141  132  133 ar  
   142  132  142 1   
   143  133  134 1   
   144  134  143 1   
   145  144  145 1   
   146  144  153 1   
   147  145  146 1   
   148  145  148 1   
   149  145  154 1   
   150  146  147 2   
   151  146  159 1   
   152  148  149 1   
   153  148  155 1   
   154  148  156 1   
   155  149  150 1   
   156  149  157 1   
   157  149  158 1   
   158  150  151 1   
   159  150  152 1   
   160  159  160 1   
   161  159  168 1   
   162  160  161 1   
   163  160  163 1   
   164  160  169 1   
   165  161  162 2   
   166  161  174 1   
   167  163  164 1   
   168  163  170 1   
   169  163  171 1   
   170  164  165 1   
   171  164  172 1   
   172  164  173 1   
   173  165  166 1   
   174  165  167 1   
   175  174  175 1   
   176  174  179 1   
   177  175  176 1   
   178  175  177 1   
   179  175  178 1   
   180  181  182 1   
   181  181  183 1   
   182  184  185 1   
   183  184  186 1   
   184  187  188 1   
   185  187  189 1   
   186  190  191 1   
   187  190  192 1   
   188  193  194 1   
   189  193  195 1   
   190  196  197 1   
   191  196  198 1   
@<TRIPOS>SUBSTRUCTURE
     1 MOL         1 TEMP              0 ****  ****    0 ROOT
