@<TRIPOS>MOLECULE
MOL
  186   183     1     0     0
SMALL
resp


@<TRIPOS>ATOM
      1 C1         11.9500    4.7100   -3.7700 c3        1 MOL     -0.459075
      2 C2         11.7820    3.3410   -3.0790 c         1 MOL      0.651091
      3 O1         12.2600    2.3900   -3.5790 o         1 MOL     -0.564608
      4 H1         11.1650    4.8380   -4.5160 hc        1 MOL      0.122872
      5 H2         11.8770    5.5040   -3.0270 hc        1 MOL      0.122872
      6 H3         12.9240    4.7550   -4.2570 hc        1 MOL      0.122872
      7 N1         11.2840    3.3570   -1.8450 n         1 MOL     -0.105946
      8 C3         11.0270    2.1450   -1.0210 c3        1 MOL     -0.374176
      9 C4          9.4940    1.8400   -1.1310 c         1 MOL      0.528974
     10 O2          8.5840    2.7050   -0.9490 o         1 MOL     -0.721497
     11 C5         11.3570    2.4120    0.4340 c3        1 MOL     -0.032711
     12 C6         11.2550    3.8160    1.0380 c         1 MOL      0.719419
     13 O3         10.1950    4.4820    1.0970 o         1 MOL     -0.693375
     14 O4         12.3200    4.2360    1.5560 o         1 MOL     -0.693375
     15 H4         11.0760    4.2680   -1.4560 hn        1 MOL      0.085924
     16 H5         11.6080    1.2980   -1.3620 h1        1 MOL      0.153466
     17 H6         12.4390    2.2990    0.3980 hc        1 MOL      0.060197
     18 H7         10.9240    1.6640    1.1130 hc        1 MOL      0.060197
     19 N2          9.1690    0.5350   -1.3580 n         1 MOL     -0.221597
     20 C7          7.8210    0.0360   -1.6970 c3        1 MOL      0.034354
     21 C8          6.7500    0.1050   -0.5270 c         1 MOL      0.552639
     22 O5          7.0420   -0.2490    0.6820 o         1 MOL     -0.524414
     23 C9          7.9770   -1.4770   -2.0490 c3        1 MOL     -0.453839
     24 C10         8.7990   -1.7420   -3.3110 c3        1 MOL      0.394310
     25 C11         9.4200   -3.1230   -3.4790 c3        1 MOL     -0.193133
     26 C12         8.2710   -4.0960   -3.7410 c3        1 MOL      0.104415
     27 N3          8.7730   -5.4630   -3.6160 n4        1 MOL     -0.249031
     28 H8          9.9220   -0.1360   -1.2850 hn        1 MOL      0.244970
     29 H9          7.4640    0.5540   -2.5810 h1        1 MOL      0.101673
     30 H10         6.9410   -1.7840   -2.1960 hc        1 MOL      0.120529
     31 H11         8.4820   -1.8970   -1.1700 hc        1 MOL      0.120529
     32 H12         9.5220   -0.9330   -3.4410 hc        1 MOL     -0.062550
     33 H13         8.1330   -1.5410   -4.1590 hc        1 MOL     -0.062550
     34 H14         9.9790   -3.3840   -2.5780 hc        1 MOL      0.053186
     35 H15        10.0090   -3.1620   -4.3950 hc        1 MOL      0.053186
     36 H16         7.8720   -3.9100   -4.7370 hx        1 MOL      0.075741
     37 H17         7.4930   -3.9410   -2.9870 hx        1 MOL      0.075741
     38 H18         8.3390   -6.1090   -4.2710 hn        1 MOL      0.299402
     39 H19         9.7320   -5.5430   -3.9000 hn        1 MOL      0.299402
     40 H20         8.6500   -5.8580   -2.7010 hn        1 MOL      0.299402
     41 N4          5.5710    0.5550   -0.9380 n         1 MOL     -0.503506
     42 C13         4.3630    0.6930   -0.0190 c3        1 MOL      0.577063
     43 C14         3.1390   -0.1010   -0.4250 c         1 MOL      0.256271
     44 O6          3.0490   -0.3310   -1.6140 o         1 MOL     -0.493719
     45 C15         3.8810    2.1470    0.2150 c3        1 MOL     -0.153724
     46 C16         5.0410    3.1320    0.1980 c         1 MOL      0.697895
     47 O7          5.1760    3.9390   -0.7320 o         1 MOL     -0.774471
     48 O8          5.9300    3.0300    1.0360 o         1 MOL     -0.774471
     49 H21         5.3570    0.7420   -1.9080 hn        1 MOL      0.264538
     50 H22         4.7080    0.3470    0.9540 h1        1 MOL     -0.022728
     51 H23         3.4410    2.1600    1.2100 hc        1 MOL      0.042673
     52 H24         3.0940    2.3880   -0.5110 hc        1 MOL      0.042673
     53 N5          2.2480   -0.6170    0.4910 n         1 MOL     -0.334991
     54 C17         2.3580   -0.8620    1.9370 c3        1 MOL     -0.331822
     55 C18         2.7340   -2.2820    2.4300 c         1 MOL      0.666045
     56 O9          2.7640   -3.2270    1.6810 o         1 MOL     -0.510015
     57 H25         1.4360   -1.1090    0.1390 hn        1 MOL      0.314974
     58 H26         1.3770   -0.6120    2.3540 h1        1 MOL      0.150594
     59 H27         3.0730   -0.1780    2.3980 h1        1 MOL      0.150594
     60 N6          3.1260   -2.3300    3.7560 n         1 MOL     -0.479891
     61 C19         2.9220   -3.5300    4.5200 c3        1 MOL      0.050790
     62 C20         1.4660   -3.9160    4.5070 c         1 MOL      0.606115
     63 O10         0.5830   -3.1250    4.7450 o         1 MOL     -0.536969
     64 C21         3.4630   -3.3030    5.9270 c3        1 MOL     -0.326013
     65 C22         3.3980   -4.5230    6.8560 c         1 MOL      0.723723
     66 O11         2.6110   -4.5680    7.7780 o         1 MOL     -0.717326
     67 O12         4.0910   -5.5410    6.5820 o         1 MOL     -0.717326
     68 H28         3.1310   -1.4790    4.3000 hn        1 MOL      0.294601
     69 H29         3.4670   -4.3710    4.1050 h1        1 MOL      0.013183
     70 H30         2.8990   -2.5030    6.3920 hc        1 MOL      0.080677
     71 H31         4.5050   -2.9890    5.8680 hc        1 MOL      0.080677
     72 N7          1.2250   -5.1850    4.1040 n         1 MOL     -0.229693
     73 C23        -0.0940   -5.6240    3.8290 c3        1 MOL     -0.235799
     74 C24        -0.5870   -5.4690    2.4150 c         1 MOL      0.569651
     75 O13        -1.5850   -6.1020    2.0900 o         1 MOL     -0.572661
     76 H32         1.9990   -5.8300    4.0630 hn        1 MOL      0.225934
     77 H33        -0.7690   -5.2920    4.6190 h1        1 MOL      0.134580
     78 H34         0.0360   -6.6840    4.0320 h1        1 MOL      0.134580
     79 N8          0.1010   -4.6790    1.5690 n         1 MOL     -0.277577
     80 C25        -0.2850   -4.3440    0.1590 c3        1 MOL     -0.169079
     81 C26        -0.8380   -2.9510    0.0170 c         1 MOL      0.775215
     82 O14        -0.8750   -2.2470    1.0320 o         1 MOL     -0.499916
     83 C27         0.8940   -4.6740   -0.7300 c3        1 MOL      0.448139
     84 C28         0.5530   -4.8270   -2.1670 c3        1 MOL     -0.401359
     85 O15         1.8070   -3.6370   -0.7320 oh        1 MOL     -0.636894
     86 H35         0.9430   -4.2360    1.9180 hn        1 MOL      0.067446
     87 H36        -1.0300   -5.1190   -0.0200 h1        1 MOL      0.086695
     88 H37         1.3620   -5.5640   -0.2930 h1        1 MOL     -0.009990
     89 H38         2.0260   -3.5410    0.1960 ho        1 MOL      0.407644
     90 H39         0.4450   -3.8950   -2.7320 hc        1 MOL      0.080395
     91 H40         1.3670   -5.2780   -2.7340 hc        1 MOL      0.080395
     92 H41        -0.4010   -5.3390   -2.3400 hc        1 MOL      0.080395
     93 N9         -1.1670   -2.3830   -1.1640 n         1 MOL     -0.790732
     94 C29        -1.8710   -1.1360   -1.2150 c3        1 MOL     -0.005286
     95 C30        -3.3740   -1.2120   -1.2980 c         1 MOL      0.677052
     96 O16        -4.1100   -0.4020   -0.6740 o         1 MOL     -0.568204
     97 C31        -1.4530   -0.2250   -2.4850 c3        1 MOL      0.101381
     98 C32        -0.0040   -0.3920   -3.1060 c3        1 MOL     -0.120095
     99 C33        -1.5300    1.2860   -2.1080 c3        1 MOL     -0.103982
    100 C34         0.3700    0.3680   -4.4100 c3        1 MOL     -0.270602
    101 H42        -1.2400   -3.0290   -1.9430 hn        1 MOL      0.359623
    102 H43        -1.6330   -0.5970   -0.2990 h1        1 MOL      0.118511
    103 H44        -2.1630   -0.2640   -3.3170 hc        1 MOL      0.006761
    104 H45         0.1210   -1.4510   -3.3350 hc        1 MOL      0.096857
    105 H46         0.8380   -0.1640   -2.4480 hc        1 MOL      0.096857
    106 H47        -2.2990    1.3330   -1.3410 hc        1 MOL      0.031355
    107 H48        -0.6150    1.6350   -1.6220 hc        1 MOL      0.031355
    108 H49        -1.9030    1.8950   -2.9340 hc        1 MOL      0.031355
    109 H50         0.0220    1.3960   -4.3360 hc        1 MOL      0.069360
    110 H51         1.4590    0.4000   -4.4770 hc        1 MOL      0.069360
    111 H52        -0.1170   -0.0570   -5.2910 hc        1 MOL      0.069360
    112 N10        -3.9180   -2.1940   -1.9390 n         1 MOL     -0.551579
    113 C35        -5.2950   -2.7310   -1.7730 c3        1 MOL     -0.042854
    114 C36        -6.2660   -2.0810   -2.8040 c         1 MOL      0.737853
    115 O17        -6.1510   -2.1990   -3.9980 o         1 MOL     -0.570110
    116 C37        -5.2590   -4.2970   -1.7690 c3        1 MOL      0.287569
    117 C38        -4.2880   -4.8470   -0.7030 c3        1 MOL     -0.490555
    118 O18        -6.5170   -4.6990   -1.2780 oh        1 MOL     -0.640754
    119 H53        -3.2250   -2.7800   -2.3870 hn        1 MOL      0.261005
    120 H54        -5.6520   -2.4710   -0.7690 h1        1 MOL      0.142583
    121 H55        -5.1700   -4.7170   -2.7640 h1        1 MOL      0.038263
    122 H56        -6.2560   -5.5220   -0.8510 ho        1 MOL      0.404238
    123 H57        -3.2770   -4.6610   -1.0830 hc        1 MOL      0.150359
    124 H58        -4.3670   -4.3010    0.2460 hc        1 MOL      0.150359
    125 H59        -4.3880   -5.9220   -0.5700 hc        1 MOL      0.150359
    126 N11        -7.3750   -1.4390   -2.3470 n         1 MOL     -0.645777
    127 C39        -8.4110   -0.7350   -3.2130 c3        1 MOL      0.026800
    128 C40        -8.9100    0.6570   -2.7180 c         1 MOL      0.618408
    129 O19        -9.1260    1.4900   -3.5950 o         1 MOL     -0.568308
    130 C41        -9.5950   -1.6840   -3.5160 c3        1 MOL      0.361193
    131 C42       -10.6020   -1.1360   -4.4620 c3        1 MOL     -0.500260
    132 O20       -10.2410   -1.8950   -2.3160 oh        1 MOL     -0.575546
    133 H60        -7.3640   -1.2000   -1.3670 hn        1 MOL      0.295039
    134 H61        -7.9810   -0.4680   -4.1770 h1        1 MOL      0.098293
    135 H62        -9.2690   -2.6220   -3.9530 h1        1 MOL      0.046021
    136 H63       -10.0190   -2.8100   -2.1420 ho        1 MOL      0.359351
    137 H64        -9.9990   -0.9210   -5.3550 hc        1 MOL      0.125669
    138 H65       -11.3440   -1.8650   -4.8110 hc        1 MOL      0.125669
    139 H66       -11.1980   -0.3110   -4.0700 hc        1 MOL      0.125669
    140 N12        -8.9480    0.8770   -1.3910 n         1 MOL     -0.424655
    141 C43        -9.2530    2.1980   -0.8930 c3        1 MOL     -0.043003
    142 C44        -8.6660    2.3850    0.4790 c         1 MOL      0.529035
    143 O21        -8.6040    1.4600    1.3320 o         1 MOL     -0.515243
    144 C45       -10.7800    2.3450   -0.8570 c3        1 MOL     -0.202412
    145 C46       -11.5600    1.3050    0.0340 c3        1 MOL      0.222723
    146 C47       -13.0890    1.5490   -0.0800 c3        1 MOL      0.058239
    147 C48       -13.9760    0.5840    0.6370 c3        1 MOL     -0.014442
    148 N13       -15.4080    1.0870    0.4900 n4        1 MOL     -0.188175
    149 H67        -8.7780    0.1190   -0.7420 hn        1 MOL      0.280495
    150 H68        -8.8580    2.9370   -1.5860 h1        1 MOL      0.132162
    151 H69       -11.1800    2.4490   -1.8640 hc        1 MOL      0.056072
    152 H70       -10.9700    3.3190   -0.4110 hc        1 MOL      0.056072
    153 H71       -11.2630    1.3480    1.0830 hc        1 MOL     -0.029852
    154 H72       -11.4270    0.2710   -0.2750 hc        1 MOL     -0.029852
    155 H73       -13.4240    1.5560   -1.1140 hc        1 MOL     -0.004469
    156 H74       -13.1620    2.5300    0.4060 hc        1 MOL     -0.004469
    157 H75       -13.7200    0.5750    1.6970 hx        1 MOL      0.085814
    158 H76       -13.9470   -0.3840    0.1320 hx        1 MOL      0.085814
    159 H77       -16.1080    0.4150    0.7590 hn        1 MOL      0.221672
    160 H78       -15.6810    1.8860    1.0300 hn        1 MOL      0.221672
    161 H79       -15.6080    1.2490   -0.4870 hn        1 MOL      0.221672
    162 N14        -8.0580    3.5520    0.6190 n         1 MOL     -0.335568
    163 C49        -7.1740    3.9960    1.7330 c3        1 MOL      0.188099
    164 C50        -5.7250    3.5360    1.5940 c         1 MOL      0.377965
    165 O22        -5.3300    2.6480    2.3450 o         1 MOL     -0.518441
    166 C51        -7.3770    5.4770    2.0070 c3        1 MOL     -0.090521
    167 C52        -6.7050    5.9900    3.3170 c3        1 MOL     -0.090582
    168 C53        -7.1140    7.3470    3.8300 c         1 MOL      0.703476
    169 O23        -6.3050    8.2650    3.9560 o         1 MOL     -0.663214
    170 O24        -8.3690    7.4620    4.1170 o         1 MOL     -0.663214
    171 H80        -8.3120    4.2330   -0.0870 hn        1 MOL      0.214267
    172 H81        -7.6670    3.4500    2.5340 h1        1 MOL      0.049913
    173 H82        -8.4270    5.7550    1.9680 hc        1 MOL      0.010105
    174 H83        -6.9070    6.0010    1.1760 hc        1 MOL      0.010105
    175 H84        -5.6280    5.8680    3.2700 hc        1 MOL      0.014461
    176 H85        -6.9860    5.3150    4.1200 hc        1 MOL      0.014461
    177 N15        -4.9940    3.7550    0.5230 n         1 MOL     -0.265314
    178 C54        -5.2120    4.5500   -0.7300 c3        1 MOL     -0.166258
    179 H86        -6.0000    4.0860   -1.3220 h1        1 MOL      0.084788
    180 H87        -5.5060    5.5670   -0.4690 h1        1 MOL      0.084788
    181 H88        -4.2900    4.5750   -1.3100 h1        1 MOL      0.084788
    182 H89        -4.0960    3.3100    0.6710 hn        1 MOL      0.254715
    183 Ca1         7.6050    4.7970    0.2990 Ca        1 MOL      1.752449
    184 O25         7.9380    4.7780    3.0510 oh        1 MOL     -0.954649
    185 H90         8.8330    4.6500    3.3590 ho        1 MOL      0.464784
    186 H91         7.4140    4.7690    3.8440 ho        1 MOL      0.464784
@<TRIPOS>BOND
     1    1    2 1   
     2    1    4 1   
     3    1    5 1   
     4    1    6 1   
     5    2    3 2   
     6    2    7 1   
     7    7    8 1   
     8    7   15 1   
     9    8    9 1   
    10    8   11 1   
    11    8   16 1   
    12    9   10 2   
    13    9   19 1   
    14   11   12 1   
    15   11   17 1   
    16   11   18 1   
    17   12   13 1   
    18   12   14 1   
    19   19   20 1   
    20   19   28 1   
    21   20   21 1   
    22   20   23 1   
    23   20   29 1   
    24   21   22 2   
    25   21   41 1   
    26   23   24 1   
    27   23   30 1   
    28   23   31 1   
    29   24   25 1   
    30   24   32 1   
    31   24   33 1   
    32   25   26 1   
    33   25   34 1   
    34   25   35 1   
    35   26   27 1   
    36   26   36 1   
    37   26   37 1   
    38   27   38 1   
    39   27   39 1   
    40   27   40 1   
    41   41   42 1   
    42   41   49 1   
    43   42   43 1   
    44   42   45 1   
    45   42   50 1   
    46   43   44 2   
    47   43   53 1   
    48   45   46 1   
    49   45   51 1   
    50   45   52 1   
    51   46   47 1   
    52   46   48 1   
    53   53   54 1   
    54   53   57 1   
    55   54   55 1   
    56   54   58 1   
    57   54   59 1   
    58   55   56 2   
    59   55   60 1   
    60   60   61 1   
    61   60   68 1   
    62   61   62 1   
    63   61   64 1   
    64   61   69 1   
    65   62   63 2   
    66   62   72 1   
    67   64   65 1   
    68   64   70 1   
    69   64   71 1   
    70   65   66 1   
    71   65   67 1   
    72   72   73 1   
    73   72   76 1   
    74   73   74 1   
    75   73   77 1   
    76   73   78 1   
    77   74   75 2   
    78   74   79 1   
    79   79   80 1   
    80   79   86 1   
    81   80   81 1   
    82   80   83 1   
    83   80   87 1   
    84   81   82 2   
    85   81   93 1   
    86   83   84 1   
    87   83   85 1   
    88   83   88 1   
    89   84   90 1   
    90   84   91 1   
    91   84   92 1   
    92   85   89 1   
    93   93   94 1   
    94   93  101 1   
    95   94   95 1   
    96   94   97 1   
    97   94  102 1   
    98   95   96 2   
    99   95  112 1   
   100   97   98 1   
   101   97   99 1   
   102   97  103 1   
   103   98  100 1   
   104   98  104 1   
   105   98  105 1   
   106   99  106 1   
   107   99  107 1   
   108   99  108 1   
   109  100  109 1   
   110  100  110 1   
   111  100  111 1   
   112  112  113 1   
   113  112  119 1   
   114  113  114 1   
   115  113  116 1   
   116  113  120 1   
   117  114  115 2   
   118  114  126 1   
   119  116  117 1   
   120  116  118 1   
   121  116  121 1   
   122  117  123 1   
   123  117  124 1   
   124  117  125 1   
   125  118  122 1   
   126  126  127 1   
   127  126  133 1   
   128  127  128 1   
   129  127  130 1   
   130  127  134 1   
   131  128  129 2   
   132  128  140 1   
   133  130  131 1   
   134  130  132 1   
   135  130  135 1   
   136  131  137 1   
   137  131  138 1   
   138  131  139 1   
   139  132  136 1   
   140  140  141 1   
   141  140  149 1   
   142  141  142 1   
   143  141  144 1   
   144  141  150 1   
   145  142  143 2   
   146  142  162 1   
   147  144  145 1   
   148  144  151 1   
   149  144  152 1   
   150  145  146 1   
   151  145  153 1   
   152  145  154 1   
   153  146  147 1   
   154  146  155 1   
   155  146  156 1   
   156  147  148 1   
   157  147  157 1   
   158  147  158 1   
   159  148  159 1   
   160  148  160 1   
   161  148  161 1   
   162  162  163 1   
   163  162  171 1   
   164  163  164 1   
   165  163  166 1   
   166  163  172 1   
   167  164  165 2   
   168  164  177 1   
   169  166  167 1   
   170  166  173 1   
   171  166  174 1   
   172  167  168 1   
   173  167  175 1   
   174  167  176 1   
   175  168  169 1   
   176  168  170 1   
   177  177  178 1   
   178  177  182 1   
   179  178  179 1   
   180  178  180 1   
   181  178  181 1   
   182  184  185 1   
   183  184  186 1   
@<TRIPOS>SUBSTRUCTURE
     1 MOL         1 TEMP              0 ****  ****    0 ROOT
