@<TRIPOS>MOLECULE
MOL
  192   187     1     0     0
SMALL
resp


@<TRIPOS>ATOM
      1 C1         11.7050    5.0750   -2.3260 c3        1 MOL     -0.302312
      2 C2         11.5860    3.7520   -1.4990 c         1 MOL      0.586519
      3 O1         12.5550    2.9940   -1.4460 o         1 MOL     -0.529625
      4 H1         12.5920    5.0290   -2.9580 hc        1 MOL      0.083337
      5 H2         10.8200    5.1930   -2.9510 hc        1 MOL      0.083337
      6 H3         11.7870    5.9230   -1.6470 hc        1 MOL      0.083337
      7 N1         10.4680    3.6730   -0.6780 n         1 MOL     -0.213789
      8 C3         10.2410    2.6030    0.3000 c3        1 MOL     -0.335212
      9 C4          8.8930    1.9030   -0.0390 c         1 MOL      0.570016
     10 O2          7.8860    2.4970   -0.4590 o         1 MOL     -0.594215
     11 C5         10.2380    3.1350    1.7290 c3        1 MOL     -0.045504
     12 C6          9.4390    4.3310    2.1230 c         1 MOL      0.655714
     13 O3          9.6270    4.7140    3.2890 o         1 MOL     -0.673108
     14 O4          8.6110    4.8600    1.3520 o         1 MOL     -0.673108
     15 H4          9.6470    4.1960   -0.9110 hn        1 MOL      0.069081
     16 H5         11.0360    1.8810    0.1460 h1        1 MOL      0.128758
     17 H6         11.2690    3.4360    1.8450 hc        1 MOL      0.080527
     18 H7         10.0700    2.2800    2.3730 hc        1 MOL      0.080527
     19 N2          8.9090    0.5190    0.0640 n         1 MOL     -0.376333
     20 C7          7.6990   -0.3290   -0.2410 c3        1 MOL     -0.106846
     21 C8          6.6050   -0.2120    0.8510 c         1 MOL      0.571375
     22 O5          6.9610   -0.4150    2.0010 o         1 MOL     -0.515598
     23 C9          8.1120   -1.8160   -0.4620 c3        1 MOL     -0.121780
     24 C10         9.0510   -2.1170   -1.7130 c3        1 MOL      0.027509
     25 C11         9.4320   -3.6230   -1.8030 c3        1 MOL     -0.219583
     26 C12         8.4180   -4.5550   -2.4150 c3        1 MOL      0.029235
     27 N3          8.1960   -4.3710   -3.8550 n4        1 MOL     -0.441096
     28 H8          9.7360    0.0490    0.3980 hn        1 MOL      0.327896
     29 H9          7.3390    0.0500   -1.1980 h1        1 MOL      0.085689
     30 H10         7.2040   -2.3790   -0.6100 hc        1 MOL      0.071500
     31 H11         8.5940   -2.2100    0.4300 hc        1 MOL      0.071500
     32 H12         9.9280   -1.4960   -1.4820 hc        1 MOL      0.004447
     33 H13         8.5920   -1.7640   -2.6320 hc        1 MOL      0.004447
     34 H14         9.6090   -3.9510   -0.7770 hc        1 MOL      0.121490
     35 H15        10.3290   -3.6780   -2.4240 hc        1 MOL      0.121490
     36 H16         7.4850   -4.5090   -1.8530 hx        1 MOL      0.083060
     37 H17         8.6110   -5.6000   -2.1770 hx        1 MOL      0.083060
     38 H18         9.0930   -4.2590   -4.3120 hn        1 MOL      0.291825
     39 H19         7.7880   -5.2460   -4.1670 hn        1 MOL      0.291825
     40 H20         7.6190   -3.5490   -3.9730 hn        1 MOL      0.291825
     41 N4          5.3670    0.1890    0.5170 n         1 MOL     -0.355680
     42 C13         4.2200    0.1000    1.4500 c3        1 MOL      0.010600
     43 C14         2.9280    0.1380    0.5770 c         1 MOL      0.433007
     44 O6          2.9780    0.2070   -0.6360 o         1 MOL     -0.456608
     45 C15         4.2880    1.2700    2.4690 c3        1 MOL     -0.153106
     46 C16         4.7130    2.6150    1.9840 c         1 MOL      0.602135
     47 O7          5.7330    3.1230    2.3660 o         1 MOL     -0.624688
     48 O8          4.1130    3.1420    1.0450 o         1 MOL     -0.624688
     49 H21         5.2250    0.4380   -0.4520 hn        1 MOL      0.206117
     50 H22         4.2280   -0.8720    1.9520 h1        1 MOL      0.108905
     51 H23         4.9170    0.9590    3.3060 hc        1 MOL      0.057912
     52 H24         3.2730    1.3370    2.8750 hc        1 MOL      0.057912
     53 N5          1.7550   -0.2410    1.1280 n         1 MOL     -0.424362
     54 C17         1.3410   -0.6650    2.4660 c3        1 MOL     -0.094552
     55 C18         1.5520   -2.1820    2.7020 c         1 MOL      0.538236
     56 O9          2.1490   -2.8480    1.8640 o         1 MOL     -0.494338
     57 H25         1.0250   -0.4500    0.4640 hn        1 MOL      0.307678
     58 H26         0.2650   -0.4740    2.5690 h1        1 MOL      0.093836
     59 H27         1.8140   -0.1630    3.3090 h1        1 MOL      0.093836
     60 N6          1.0180   -2.6900    3.8190 n         1 MOL     -0.401978
     61 C19         1.0190   -4.1540    4.0670 c3        1 MOL     -0.020780
     62 C20         0.3550   -4.9740    2.8720 c         1 MOL      0.354828
     63 O10        -0.8000   -4.6270    2.5290 o         1 MOL     -0.429098
     64 C21         0.2330   -4.4000    5.3580 c3        1 MOL     -0.167987
     65 C22         0.2560   -5.9310    5.7070 c         1 MOL      0.661607
     66 O11         1.3080   -6.6500    5.5250 o         1 MOL     -0.638543
     67 O12        -0.7260   -6.3710    6.3550 o         1 MOL     -0.638543
     68 H28         0.6440   -2.0820    4.5360 hn        1 MOL      0.276683
     69 H29         2.0070   -4.5440    4.2820 h1        1 MOL      0.054149
     70 H30        -0.8240   -4.1100    5.3460 hc        1 MOL      0.070722
     71 H31         0.7030   -3.8670    6.1810 hc        1 MOL      0.070722
     72 N7          0.9810   -6.0710    2.4720 n         1 MOL     -0.238597
     73 C23         0.5030   -6.7040    1.2180 c3        1 MOL     -0.012322
     74 C24         0.7320   -5.9500   -0.1040 c         1 MOL      0.524117
     75 O13         0.8890   -6.6750   -1.1110 o         1 MOL     -0.598632
     76 H32         1.8540   -6.3280    2.9040 hn        1 MOL      0.249535
     77 H33        -0.5600   -6.8570    1.3970 h1        1 MOL      0.068635
     78 H34         0.9990   -7.6790    1.1970 h1        1 MOL      0.068635
     79 N8          0.9080   -4.6360   -0.1140 n         1 MOL     -0.118532
     80 C25         1.1160   -3.7290   -1.2460 c3        1 MOL      0.109043
     81 C26         0.2970   -2.4410   -1.2210 c         1 MOL      0.231132
     82 O14        -0.1220   -1.8940   -0.1900 o         1 MOL     -0.266166
     83 C27         2.6700   -3.5860   -1.5030 c3        1 MOL      0.174438
     84 C28         3.3830   -4.9610   -1.8140 c3        1 MOL     -0.400265
     85 O15         2.8930   -2.8590   -2.7190 oh        1 MOL     -0.552575
     86 H35         0.9510   -4.2070    0.8040 hn        1 MOL     -0.006645
     87 H36         0.7290   -4.2670   -2.1140 h1        1 MOL      0.055949
     88 H37         3.2110   -3.1060   -0.6960 h1        1 MOL      0.075986
     89 H38         3.8360   -3.0200   -2.7450 ho        1 MOL      0.340841
     90 H39         3.3530   -5.6120   -0.9400 hc        1 MOL      0.108730
     91 H40         3.0320   -5.4680   -2.7170 hc        1 MOL      0.108730
     92 H41         4.4220   -4.7680   -2.0830 hc        1 MOL      0.108730
     93 N9          0.1080   -1.8150   -2.3920 n         1 MOL     -0.346662
     94 C29        -0.4510   -0.4720   -2.6040 c3        1 MOL     -0.104091
     95 C30        -1.7920   -0.4010   -1.8860 c         1 MOL      0.385318
     96 O16        -2.1490    0.5760   -1.2710 o         1 MOL     -0.484040
     97 C31        -0.5220   -0.1000   -4.1130 c3        1 MOL      0.263528
     98 C32         0.7590   -0.1230   -5.0400 c3        1 MOL      0.190924
     99 C33        -1.1520    1.2990   -4.1240 c3        1 MOL     -0.369078
    100 C34         1.8910    0.7920   -4.5840 c3        1 MOL     -0.285560
    101 H42         0.4060   -2.2280   -3.2600 hn        1 MOL      0.284847
    102 H43         0.1950    0.2380   -2.1070 h1        1 MOL      0.080772
    103 H44        -1.1490   -0.8430   -4.6070 hc        1 MOL     -0.055099
    104 H45         0.3940    0.2000   -6.0200 hc        1 MOL     -0.052047
    105 H46         1.1110   -1.1500   -5.1200 hc        1 MOL     -0.052047
    106 H47        -0.5430    2.0330   -3.5910 hc        1 MOL      0.106235
    107 H48        -1.2480    1.6440   -5.1500 hc        1 MOL      0.106235
    108 H49        -2.1510    1.2090   -3.7100 hc        1 MOL      0.106235
    109 H50         1.4960    1.7980   -4.7050 hc        1 MOL      0.063085
    110 H51         2.1890    0.5330   -3.5640 hc        1 MOL      0.063085
    111 H52         2.8200    0.4490   -5.0540 hc        1 MOL      0.063085
    112 N10        -2.5900   -1.4620   -2.0360 n         1 MOL     -0.187813
    113 C35        -3.8790   -1.6000   -1.3360 c3        1 MOL     -0.174464
    114 C36        -5.1350   -1.9610   -2.1290 c         1 MOL      0.547800
    115 O17        -5.0140   -2.8160   -3.0280 o         1 MOL     -0.553278
    116 C37        -3.7670   -2.6430   -0.3040 c3        1 MOL      0.540457
    117 C38        -3.2840   -4.0850   -0.7290 c3        1 MOL     -0.225136
    118 O18        -2.8140   -2.1290    0.6250 oh        1 MOL     -0.650527
    119 H53        -2.3720   -2.2550   -2.6230 hn        1 MOL      0.200899
    120 H54        -4.1470   -0.6910   -0.7960 h1        1 MOL      0.083420
    121 H55        -4.7430   -2.7920    0.1440 h1        1 MOL     -0.047479
    122 H56        -2.1170   -1.7600    0.0780 ho        1 MOL      0.351944
    123 H57        -4.1670   -4.6750   -0.9560 hc        1 MOL      0.043912
    124 H58        -2.7630   -4.1730   -1.6820 hc        1 MOL      0.043912
    125 H59        -2.5840   -4.4410    0.0270 hc        1 MOL      0.043912
    126 N11        -6.2700   -1.4040   -1.8010 n         1 MOL     -0.473784
    127 C39        -7.5830   -1.6980   -2.4860 c3        1 MOL     -0.009756
    128 C40        -8.4890   -0.4580   -2.5400 c         1 MOL      0.497114
    129 O19        -8.8820    0.0450   -3.6280 o         1 MOL     -0.537710
    130 C41        -8.2150   -2.9350   -1.7490 c3        1 MOL      0.183049
    131 C42        -9.4230   -3.4840   -2.4110 c3        1 MOL     -0.316335
    132 O20        -8.6060   -2.6150   -0.3880 oh        1 MOL     -0.647817
    133 H60        -6.3220   -0.7960   -1.0000 hn        1 MOL      0.294769
    134 H61        -7.4440   -2.0010   -3.5240 h1        1 MOL      0.121165
    135 H62        -7.6320   -3.8540   -1.7560 h1        1 MOL      0.097005
    136 H63        -7.9710   -3.0570    0.1830 ho        1 MOL      0.425916
    137 H64        -9.2390   -3.7870   -3.4420 hc        1 MOL      0.094264
    138 H65        -9.7590   -4.3970   -1.9130 hc        1 MOL      0.094264
    139 H66       -10.2570   -2.7820   -2.3660 hc        1 MOL      0.094264
    140 N12        -8.7600    0.1110   -1.3840 n         1 MOL     -0.198768
    141 C43        -9.3330    1.4430   -1.0990 c3        1 MOL     -0.084111
    142 C44        -8.6230    2.1140    0.1400 c         1 MOL      0.380475
    143 O21        -8.3780    1.4350    1.1740 o         1 MOL     -0.479946
    144 C45       -10.8010    1.3420   -0.8460 c3        1 MOL     -0.269738
    145 C46       -11.2060    0.1400    0.0040 c3        1 MOL      0.257880
    146 C47       -12.7210    0.2940    0.2930 c3        1 MOL     -0.084397
    147 C48       -13.1670   -0.8540    1.1130 c3        1 MOL      0.100525
    148 N13       -14.5810   -0.6750    1.5130 n4        1 MOL     -0.228110
    149 H67        -8.4010   -0.3480   -0.5650 hn        1 MOL      0.176238
    150 H68        -9.1790    2.1920   -1.8750 h1        1 MOL      0.083606
    151 H69       -11.2860    1.1710   -1.8070 hc        1 MOL      0.091012
    152 H70       -11.1870    2.2790   -0.4340 hc        1 MOL      0.091012
    153 H71       -10.7150    0.1430    0.9710 hc        1 MOL      0.002303
    154 H72       -11.0680   -0.8170   -0.5060 hc        1 MOL      0.002303
    155 H73       -13.2670    0.3380   -0.6440 hc        1 MOL      0.024851
    156 H74       -12.9010    1.2140    0.8500 hc        1 MOL      0.024851
    157 H75       -12.5340   -1.1320    1.9510 hx        1 MOL      0.048735
    158 H76       -13.2890   -1.6520    0.3780 hx        1 MOL      0.048735
    159 H77       -15.2480   -0.8340    0.7760 hn        1 MOL      0.257744
    160 H78       -14.8320   -1.2440    2.3110 hn        1 MOL      0.257744
    161 H79       -14.7150    0.2790    1.8130 hn        1 MOL      0.257744
    162 N14        -8.4230    3.4330    0.1460 n         1 MOL     -0.345171
    163 C49        -7.8570    4.2200    1.2720 c3        1 MOL      0.260389
    164 C50        -6.3700    4.0230    1.3330 c         1 MOL      0.345765
    165 O22        -5.7670    3.7130    2.3760 o         1 MOL     -0.513292
    166 C51        -8.3110    5.6860    1.2220 c3        1 MOL      0.147725
    167 C52        -9.8360    5.7890    1.6200 c3        1 MOL     -0.307963
    168 C53       -10.2370    7.2530    1.6070 c         1 MOL      0.713455
    169 O23        -9.7850    8.0910    0.7900 o         1 MOL     -0.644839
    170 O24       -11.0820    7.6840    2.4740 o         1 MOL     -0.644839
    171 H80        -8.7640    3.8810   -0.6960 hn        1 MOL      0.296059
    172 H81        -8.2540    3.7950    2.1870 h1        1 MOL      0.024217
    173 H82        -8.2590    6.0180    0.1800 hc        1 MOL     -0.010136
    174 H83        -7.7290    6.2830    1.9260 hc        1 MOL     -0.010136
    175 H84        -9.9610    5.3150    2.5950 hc        1 MOL      0.042903
    176 H85       -10.4680    5.2670    0.9110 hc        1 MOL      0.042903
    177 N15        -5.6310    4.1830    0.2180 n         1 MOL     -0.353854
    178 C54        -5.8050    4.8800   -1.0310 c3        1 MOL      0.005092
    179 H86        -4.9310    4.7150   -1.6630 h1        1 MOL      0.029072
    180 H87        -6.6940    4.5030   -1.5370 h1        1 MOL      0.029072
    181 H88        -5.9190    5.9470   -0.8400 h1        1 MOL      0.029072
    182 H89        -4.7420    3.7050    0.3180 hn        1 MOL      0.293339
    183 Ca1         6.2170    4.4480    0.0040 Ca        1 MOL      1.780013
    184 O25         5.5800    6.3500    1.7930 oh        1 MOL     -0.951216
    185 H90         5.4650    7.2120    1.3890 ho        1 MOL      0.454917
    186 H91         5.6190    6.5360    2.7350 ho        1 MOL      0.454917
    187 O26         5.1370    2.3040   -1.7280 oh        1 MOL     -0.951216
    188 H92         5.8720    2.1630   -2.3120 ho        1 MOL      0.454917
    189 H93         4.3620    2.1960   -2.2850 ho        1 MOL      0.454917
    190 O27         4.0630    5.2540   -0.9470 oh        1 MOL     -0.951216
    191 H94         3.8020    6.1300   -0.6670 ho        1 MOL      0.454917
    192 H95         3.2800    4.8900   -1.3580 ho        1 MOL      0.454917
@<TRIPOS>BOND
     1    1    2 1   
     2    1    4 1   
     3    1    5 1   
     4    1    6 1   
     5    2    3 2   
     6    2    7 1   
     7    7    8 1   
     8    7   15 1   
     9    8    9 1   
    10    8   11 1   
    11    8   16 1   
    12    9   10 2   
    13    9   19 1   
    14   11   12 1   
    15   11   17 1   
    16   11   18 1   
    17   12   13 1   
    18   12   14 1   
    19   19   20 1   
    20   19   28 1   
    21   20   21 1   
    22   20   23 1   
    23   20   29 1   
    24   21   22 2   
    25   21   41 1   
    26   23   24 1   
    27   23   30 1   
    28   23   31 1   
    29   24   25 1   
    30   24   32 1   
    31   24   33 1   
    32   25   26 1   
    33   25   34 1   
    34   25   35 1   
    35   26   27 1   
    36   26   36 1   
    37   26   37 1   
    38   27   38 1   
    39   27   39 1   
    40   27   40 1   
    41   41   42 1   
    42   41   49 1   
    43   42   43 1   
    44   42   45 1   
    45   42   50 1   
    46   43   44 2   
    47   43   53 1   
    48   45   46 1   
    49   45   51 1   
    50   45   52 1   
    51   46   47 1   
    52   46   48 1   
    53   53   54 1   
    54   53   57 1   
    55   54   55 1   
    56   54   58 1   
    57   54   59 1   
    58   55   56 2   
    59   55   60 1   
    60   60   61 1   
    61   60   68 1   
    62   61   62 1   
    63   61   64 1   
    64   61   69 1   
    65   62   63 2   
    66   62   72 1   
    67   64   65 1   
    68   64   70 1   
    69   64   71 1   
    70   65   66 1   
    71   65   67 1   
    72   72   73 1   
    73   72   76 1   
    74   73   74 1   
    75   73   77 1   
    76   73   78 1   
    77   74   75 2   
    78   74   79 1   
    79   79   80 1   
    80   79   86 1   
    81   80   81 1   
    82   80   83 1   
    83   80   87 1   
    84   81   82 2   
    85   81   93 1   
    86   83   84 1   
    87   83   85 1   
    88   83   88 1   
    89   84   90 1   
    90   84   91 1   
    91   84   92 1   
    92   85   89 1   
    93   93   94 1   
    94   93  101 1   
    95   94   95 1   
    96   94   97 1   
    97   94  102 1   
    98   95   96 2   
    99   95  112 1   
   100   97   98 1   
   101   97   99 1   
   102   97  103 1   
   103   98  100 1   
   104   98  104 1   
   105   98  105 1   
   106   99  106 1   
   107   99  107 1   
   108   99  108 1   
   109  100  109 1   
   110  100  110 1   
   111  100  111 1   
   112  112  113 1   
   113  112  119 1   
   114  113  114 1   
   115  113  116 1   
   116  113  120 1   
   117  114  115 2   
   118  114  126 1   
   119  116  117 1   
   120  116  118 1   
   121  116  121 1   
   122  117  123 1   
   123  117  124 1   
   124  117  125 1   
   125  118  122 1   
   126  126  127 1   
   127  126  133 1   
   128  127  128 1   
   129  127  130 1   
   130  127  134 1   
   131  128  129 2   
   132  128  140 1   
   133  130  131 1   
   134  130  132 1   
   135  130  135 1   
   136  131  137 1   
   137  131  138 1   
   138  131  139 1   
   139  132  136 1   
   140  140  141 1   
   141  140  149 1   
   142  141  142 1   
   143  141  144 1   
   144  141  150 1   
   145  142  143 2   
   146  142  162 1   
   147  144  145 1   
   148  144  151 1   
   149  144  152 1   
   150  145  146 1   
   151  145  153 1   
   152  145  154 1   
   153  146  147 1   
   154  146  155 1   
   155  146  156 1   
   156  147  148 1   
   157  147  157 1   
   158  147  158 1   
   159  148  159 1   
   160  148  160 1   
   161  148  161 1   
   162  162  163 1   
   163  162  171 1   
   164  163  164 1   
   165  163  166 1   
   166  163  172 1   
   167  164  165 2   
   168  164  177 1   
   169  166  167 1   
   170  166  173 1   
   171  166  174 1   
   172  167  168 1   
   173  167  175 1   
   174  167  176 1   
   175  168  169 1   
   176  168  170 1   
   177  177  178 1   
   178  177  182 1   
   179  178  179 1   
   180  178  180 1   
   181  178  181 1   
   182  184  185 1   
   183  184  186 1   
   184  187  188 1   
   185  187  189 1   
   186  190  191 1   
   187  190  192 1   
@<TRIPOS>SUBSTRUCTURE
     1 MOL         1 TEMP              0 ****  ****    0 ROOT
