@<TRIPOS>MOLECULE
MOL
  188   182     1     0     0
SMALL
resp


@<TRIPOS>ATOM
      1 C1         -6.4440   -1.5010    2.5980 c3        1 MOL     -0.300944
      2 C2         -7.1010   -1.5920    1.1680 c         1 MOL      0.672032
      3 O1         -6.5260   -1.1730    0.1650 o         1 MOL     -0.526593
      4 H1         -7.1840   -1.1450    3.3150 hc        1 MOL      0.062148
      5 H2         -6.0920   -2.4870    2.9000 hc        1 MOL      0.062148
      6 H3         -5.6050   -0.8070    2.5690 hc        1 MOL      0.062148
      7 N1         -8.3680   -2.0590    1.1300 n         1 MOL     -0.458332
      8 C3         -9.4070   -1.8290    0.0850 c3        1 MOL     -0.096935
      9 C4         -9.6110   -0.3660   -0.3450 c         1 MOL      0.483247
     10 O2        -10.3410   -0.1180   -1.3170 o         1 MOL     -0.497201
     11 C5         -9.1520   -2.7020   -1.0890 c3        1 MOL     -0.144113
     12 C6         -9.2510   -4.2520   -0.9640 c         1 MOL      0.713945
     13 O3         -8.1960   -4.8820   -1.1010 o         1 MOL     -0.661154
     14 O4        -10.3680   -4.7960   -0.7370 o         1 MOL     -0.661154
     15 H4         -8.6930   -2.3940    2.0270 hn        1 MOL      0.309448
     16 H5        -10.3490   -2.1380    0.5270 h1        1 MOL      0.107403
     17 H6         -8.1890   -2.4920   -1.5650 hc        1 MOL      0.063372
     18 H7         -9.8240   -2.5520   -1.9350 hc        1 MOL      0.063372
     19 N2         -8.8350    0.5920    0.1960 n         1 MOL     -0.352295
     20 C7         -8.7780    1.9750   -0.2580 c3        1 MOL      0.094688
     21 C8         -7.3840    2.5420   -0.3030 c         1 MOL      0.578989
     22 O5         -7.2160    3.7440   -0.2260 o         1 MOL     -0.589707
     23 C9         -9.8580    2.7150    0.6190 c3        1 MOL     -0.143691
     24 C10        -9.7890    2.7410    2.2100 c3        1 MOL     -0.018828
     25 C11        -8.4850    3.3130    2.7250 c3        1 MOL     -0.309346
     26 C12        -8.8120    3.5650    4.2510 c3        1 MOL      0.136076
     27 N3         -7.6190    4.2390    4.8920 n4        1 MOL     -0.278464
     28 H8         -8.1590    0.2800    0.8720 hn        1 MOL      0.174799
     29 H9         -9.2830    2.0530   -1.2240 h1        1 MOL      0.081935
     30 H10       -10.8800    2.3690    0.4260 hc        1 MOL      0.073046
     31 H11        -9.8090    3.7410    0.2670 hc        1 MOL      0.073046
     32 H12        -9.9270    1.7230    2.5750 hc        1 MOL      0.040767
     33 H13       -10.6770    3.3220    2.4560 hc        1 MOL      0.040767
     34 H14        -8.3530    4.2870    2.2590 hc        1 MOL      0.135648
     35 H15        -7.5980    2.6820    2.6210 hc        1 MOL      0.135648
     36 H16        -9.0150    2.6470    4.7950 hx        1 MOL      0.060390
     37 H17        -9.7520    4.1050    4.3440 hx        1 MOL      0.060390
     38 H18        -7.6770    4.3650    5.8900 hn        1 MOL      0.231174
     39 H19        -6.7670    3.6950    4.8400 hn        1 MOL      0.231174
     40 H20        -7.5230    5.1940    4.5680 hn        1 MOL      0.231174
     41 N4         -6.4250    1.6630   -0.4350 n         1 MOL     -0.449497
     42 C13        -5.0430    2.0800   -0.5120 c3        1 MOL      0.055869
     43 C14        -4.4400    2.4560   -1.8920 c         1 MOL      0.558776
     44 O6         -4.8650    1.8690   -2.9220 o         1 MOL     -0.479189
     45 C15        -4.2570    0.8840    0.0840 c3        1 MOL     -0.083235
     46 C16        -2.7300    1.0320    0.2470 c         1 MOL      0.647107
     47 O7         -2.2500    1.5220    1.2940 o         1 MOL     -0.761820
     48 O8         -1.9330    0.9260   -0.6830 o         1 MOL     -0.761820
     49 H21        -6.7390    0.7340   -0.6550 hn        1 MOL      0.292833
     50 H22        -4.9340    2.9160    0.1760 h1        1 MOL      0.020573
     51 H23        -4.4860    0.1030   -0.6430 hc        1 MOL      0.048603
     52 H24        -4.5970    0.6840    1.0990 hc        1 MOL      0.048603
     53 N5         -3.4820    3.4360   -1.9930 n         1 MOL     -0.368507
     54 C17        -2.9310    3.9230   -3.2110 c3        1 MOL     -0.149277
     55 C18        -2.1460    3.0240   -4.1100 c         1 MOL      0.519166
     56 O9         -1.9330    3.2400   -5.3100 o         1 MOL     -0.545348
     57 H25        -3.3270    3.9950   -1.1650 hn        1 MOL      0.270067
     58 H26        -2.4220    4.8760   -3.0560 h1        1 MOL      0.103613
     59 H27        -3.8330    4.1100   -3.7970 h1        1 MOL      0.103613
     60 N6         -1.6340    1.9220   -3.5280 n         1 MOL     -0.120366
     61 C19        -0.8470    0.8420   -4.1740 c3        1 MOL     -0.050030
     62 C20        -1.1830   -0.5410   -3.6380 c         1 MOL      0.288096
     63 O10        -0.2970   -1.4500   -3.6640 o         1 MOL     -0.374908
     64 C21         0.6190    1.2180   -4.1070 c3        1 MOL     -0.364805
     65 C22         1.2640    1.1090   -2.7430 c         1 MOL      0.672675
     66 N7          2.5030    1.5770   -2.6370 n         1 MOL     -0.951505
     67 O11         0.7380    0.6430   -1.7100 o         1 MOL     -0.594205
     68 H28        -1.9180    1.7360   -2.5780 hn        1 MOL      0.054466
     69 H29        -1.1460    0.8010   -5.2200 h1        1 MOL      0.141037
     70 H30         0.7570    2.2320   -4.4810 hc        1 MOL      0.160768
     71 H31         1.1630    0.5160   -4.7500 hc        1 MOL      0.160768
     72 H32         3.0120    2.0050   -3.3890 hn        1 MOL      0.414358
     73 H33         2.9360    1.4490   -1.7320 hn        1 MOL      0.414358
     74 N8         -2.3720   -0.7210   -3.0410 n         1 MOL     -0.048397
     75 C23        -2.9940   -1.9910   -2.7230 c3        1 MOL     -0.300777
     76 C24        -2.3970   -2.8360   -1.5260 c         1 MOL      0.536792
     77 O12        -2.7810   -4.0210   -1.4120 o         1 MOL     -0.509538
     78 H34        -2.9500    0.1140   -3.0550 hn        1 MOL      0.152248
     79 H35        -3.1040   -2.5350   -3.6590 h1        1 MOL      0.163071
     80 H36        -4.0310   -1.7550   -2.4920 h1        1 MOL      0.163071
     81 N9         -1.6710   -2.2210   -0.6240 n         1 MOL     -0.453534
     82 C25        -1.0180   -2.7850    0.5450 c3        1 MOL      0.018719
     83 C26         0.3270   -1.9930    0.8200 c         1 MOL      0.501279
     84 O13         0.2350   -0.7840    0.8870 o         1 MOL     -0.541357
     85 C27        -1.9810   -2.6330    1.7370 c3        1 MOL     -0.352892
     86 C28        -1.2570   -3.0460    2.9570 ca        1 MOL     -0.046488
     87 C29        -0.5970   -4.3260    3.0620 ca        1 MOL     -0.029650
     88 C30        -1.0550   -2.0480    3.8970 ca        1 MOL     -0.029650
     89 C31         0.0790   -4.5730    4.2230 ca        1 MOL     -0.382746
     90 C32        -0.4420   -2.3830    5.1550 ca        1 MOL     -0.382746
     91 C33         0.1480   -3.6240    5.2680 ca        1 MOL      0.462035
     92 O14         0.9280   -3.9150    6.2790 oh        1 MOL     -0.475017
     93 H37        -1.4830   -1.2470   -0.8090 hn        1 MOL      0.355045
     94 H38        -0.7180   -3.8110    0.3200 h1        1 MOL      0.088205
     95 H39        -2.7810   -3.3770    1.6070 hc        1 MOL      0.193123
     96 H40        -2.4140   -1.6420    1.8110 hc        1 MOL      0.193123
     97 H41        -0.5800   -5.0690    2.2710 ha        1 MOL      0.128587
     98 H42        -1.3640   -1.0160    3.7710 ha        1 MOL      0.128587
     99 H43         0.6590   -5.4710    4.3730 ha        1 MOL      0.154122
    100 H44        -0.3110   -1.6840    5.9780 ha        1 MOL      0.154122
    101 H45         1.0510   -3.1890    6.8830 ho        1 MOL      0.358028
    102 N10         1.4330   -2.6970    0.9090 n         1 MOL     -0.296113
    103 C34         2.7510   -2.0820    1.0440 c3        1 MOL     -0.108694
    104 C35         3.1900   -1.7480   -0.3520 c         1 MOL      0.137566
    105 O15         3.8940   -0.7150   -0.5930 o         1 MOL     -0.329164
    106 C36         3.7780   -2.9670    1.8400 c3        1 MOL      0.192009
    107 C37         3.4160   -2.9700    3.3380 c3        1 MOL      0.168970
    108 C38         5.2460   -2.6750    1.5820 c3        1 MOL     -0.331267
    109 C39         3.8980   -4.2510    4.0440 c3        1 MOL     -0.389685
    110 H46         1.3420   -3.6840    0.7340 hn        1 MOL      0.256378
    111 H47         2.6610   -1.1300    1.5620 h1        1 MOL      0.114700
    112 H48         3.6970   -3.9950    1.4960 hc        1 MOL     -0.006933
    113 H49         2.3460   -2.9360    3.5500 hc        1 MOL     -0.026655
    114 H50         3.8010   -2.0710    3.8080 hc        1 MOL     -0.026655
    115 H51         5.4060   -2.8700    0.5220 hc        1 MOL      0.085728
    116 H52         5.4170   -1.6090    1.7630 hc        1 MOL      0.085728
    117 H53         5.8130   -3.3220    2.2470 hc        1 MOL      0.085728
    118 H54         3.2180   -5.0910    3.9690 hc        1 MOL      0.106425
    119 H55         4.8780   -4.5290    3.6370 hc        1 MOL      0.106425
    120 H56         4.1170   -3.9910    5.0860 hc        1 MOL      0.106425
    121 N11         2.9440   -2.5340   -1.3920 n         1 MOL     -0.034295
    122 C40         3.2320   -2.1980   -2.7690 c3        1 MOL     -0.117635
    123 C41         4.7510   -2.1690   -3.1230 c         1 MOL      0.295680
    124 O16         5.1060   -1.4870   -4.0860 o         1 MOL     -0.448993
    125 C42         2.5580   -3.2110   -3.7190 c3        1 MOL      0.115056
    126 O17         1.2710   -3.5380   -3.2710 oh        1 MOL     -0.537160
    127 H57         2.4070   -3.3740   -1.2350 hn        1 MOL      0.200390
    128 H58         2.9190   -1.1970   -3.0570 h1        1 MOL      0.171647
    129 H59         3.0420   -4.1930   -3.7450 h1        1 MOL      0.072433
    130 H60         2.4170   -2.7160   -4.6700 h1        1 MOL      0.072433
    131 H61         0.7670   -2.7220   -3.3350 ho        1 MOL      0.289283
    132 N12         5.5630   -2.8520   -2.3250 n         1 MOL     -0.389887
    133 C43         6.9740   -2.7100   -2.3830 c3        1 MOL      0.259149
    134 C44         7.5590   -1.3030   -2.2890 c         1 MOL      0.448083
    135 O18         8.7360   -1.0290   -2.6410 o         1 MOL     -0.505074
    136 C45         7.4730   -3.4350   -3.5820 c3        1 MOL     -0.337757
    137 H62         5.2930   -3.4550   -1.5660 hn        1 MOL      0.281446
    138 H63         7.3780   -3.2580   -1.5340 h1        1 MOL      0.032675
    139 H64         7.3920   -4.5070   -3.3930 hc        1 MOL      0.092756
    140 H65         6.8670   -3.1890   -4.4510 hc        1 MOL      0.092756
    141 H66         8.4950   -3.1310   -3.7860 hc        1 MOL      0.092756
    142 N13         6.8330   -0.3880   -1.6290 n         1 MOL     -0.407773
    143 C46         7.3320    0.8990   -1.3140 c3        1 MOL      0.289521
    144 C47         8.2250    0.9110   -0.0490 c         1 MOL      0.370276
    145 O19         7.8850    0.2530    0.9250 o         1 MOL     -0.440389
    146 C48         6.1170    1.8560   -1.2880 c3        1 MOL     -0.087924
    147 H67         5.9080   -0.5620   -1.2580 hn        1 MOL      0.161541
    148 H68         8.0800    1.2230   -2.0340 h1        1 MOL     -0.023299
    149 H69         5.8230    2.1130   -2.3120 hc        1 MOL      0.019205
    150 H70         5.3200    1.3680   -0.7340 hc        1 MOL      0.019205
    151 H71         6.3240    2.8370   -0.8660 hc        1 MOL      0.019205
    152 N14         9.2180    1.7500   -0.0150 n         1 MOL     -0.453330
    153 C49         9.9260    2.2040    1.1880 c3        1 MOL     -0.132844
    154 C50        10.3950    1.0120    2.0410 c         1 MOL      0.429241
    155 O20        10.3990    0.9820    3.3110 o         1 MOL     -0.489238
    156 C51         9.0260    3.1330    1.9820 c3        1 MOL      0.215547
    157 C52         8.4130    4.3070    1.1450 c3        1 MOL     -0.218406
    158 C53         7.3110    5.0900    1.8630 c         1 MOL      0.649048
    159 O21         6.3560    4.5070    2.3810 o         1 MOL     -0.675368
    160 O22         7.4620    6.3290    2.0230 o         1 MOL     -0.675368
    161 H72         9.3500    2.3300   -0.8330 hn        1 MOL      0.313549
    162 H73        10.8180    2.7230    0.8540 h1        1 MOL      0.096156
    163 H74         9.5360    3.4180    2.8990 hc        1 MOL     -0.000118
    164 H75         8.2390    2.5070    2.3890 hc        1 MOL     -0.000118
    165 H76         7.9240    4.0120    0.2100 hc        1 MOL      0.027391
    166 H77         9.2000    4.9730    0.8080 hc        1 MOL      0.027391
    167 N15        10.8910   -0.0800    1.4070 n         1 MOL     -0.246136
    168 C54        11.3000   -1.3530    1.9610 c3        1 MOL     -0.208977
    169 H78        10.5990   -1.6520    2.7390 h1        1 MOL      0.099668
    170 H79        11.3110   -2.1050    1.1730 h1        1 MOL      0.099668
    171 H80        12.2990   -1.2600    2.3880 h1        1 MOL      0.099668
    172 H81        10.8850   -0.0270    0.4010 hn        1 MOL      0.235693
    173 Ca1         0.2030    1.9700    0.5610 Ca        1 MOL      1.823613
    174 O23        -0.9430    4.6900    1.0800 oh        1 MOL     -0.833667
    175 H82        -0.3300    5.3930    1.2830 ho        1 MOL      0.409696
    176 H83        -1.6510    5.1090    0.5890 ho        1 MOL      0.409696
    177 O24         0.4730    3.8850   -1.4280 oh        1 MOL     -0.833667
    178 H84         0.6310    4.7130   -0.9680 ho        1 MOL      0.409696
    179 H85         0.6340    4.0930   -2.3480 ho        1 MOL      0.409696
    180 O25         2.8650    1.5510    0.3800 oh        1 MOL     -0.833667
    181 H86         3.2850    0.8250   -0.0820 ho        1 MOL      0.409696
    182 H87         3.5300    1.8560    1.0050 ho        1 MOL      0.409696
    183 O26         1.5880    3.7340    1.7960 oh        1 MOL     -0.833667
    184 H88         2.3400    4.2180    1.4640 ho        1 MOL      0.409696
    185 H89         1.2950    4.2400    2.5540 ho        1 MOL      0.409696
    186 O27         0.8790    1.3570    3.2370 oh        1 MOL     -0.833667
    187 H90         1.7840    1.3800    3.5450 ho        1 MOL      0.409696
    188 H91         0.3580    1.5210    4.0260 ho        1 MOL      0.409696
@<TRIPOS>BOND
     1    1    2 1   
     2    1    4 1   
     3    1    5 1   
     4    1    6 1   
     5    2    3 2   
     6    2    7 1   
     7    7    8 1   
     8    7   15 1   
     9    8    9 1   
    10    8   11 1   
    11    8   16 1   
    12    9   10 2   
    13    9   19 1   
    14   11   12 1   
    15   11   17 1   
    16   11   18 1   
    17   12   13 1   
    18   12   14 1   
    19   19   20 1   
    20   19   28 1   
    21   20   21 1   
    22   20   23 1   
    23   20   29 1   
    24   21   22 2   
    25   21   41 1   
    26   23   24 1   
    27   23   30 1   
    28   23   31 1   
    29   24   25 1   
    30   24   32 1   
    31   24   33 1   
    32   25   26 1   
    33   25   34 1   
    34   25   35 1   
    35   26   27 1   
    36   26   36 1   
    37   26   37 1   
    38   27   38 1   
    39   27   39 1   
    40   27   40 1   
    41   41   42 1   
    42   41   49 1   
    43   42   43 1   
    44   42   45 1   
    45   42   50 1   
    46   43   44 2   
    47   43   53 1   
    48   45   46 1   
    49   45   51 1   
    50   45   52 1   
    51   46   47 1   
    52   46   48 1   
    53   53   54 1   
    54   53   57 1   
    55   54   55 1   
    56   54   58 1   
    57   54   59 1   
    58   55   56 2   
    59   55   60 1   
    60   60   61 1   
    61   60   68 1   
    62   61   62 1   
    63   61   64 1   
    64   61   69 1   
    65   62   63 2   
    66   62   74 1   
    67   64   65 1   
    68   64   70 1   
    69   64   71 1   
    70   65   66 1   
    71   65   67 2   
    72   66   72 1   
    73   66   73 1   
    74   74   75 1   
    75   74   78 1   
    76   75   76 1   
    77   75   79 1   
    78   75   80 1   
    79   76   77 2   
    80   76   81 1   
    81   81   82 1   
    82   81   93 1   
    83   82   83 1   
    84   82   85 1   
    85   82   94 1   
    86   83   84 2   
    87   83  102 1   
    88   85   86 1   
    89   85   95 1   
    90   85   96 1   
    91   86   87 ar  
    92   86   88 ar  
    93   87   89 ar  
    94   87   97 1   
    95   88   90 ar  
    96   88   98 1   
    97   89   91 ar  
    98   89   99 1   
    99   90   91 ar  
   100   90  100 1   
   101   91   92 1   
   102   92  101 1   
   103  102  103 1   
   104  102  110 1   
   105  103  104 1   
   106  103  106 1   
   107  103  111 1   
   108  104  105 2   
   109  104  121 1   
   110  106  107 1   
   111  106  108 1   
   112  106  112 1   
   113  107  109 1   
   114  107  113 1   
   115  107  114 1   
   116  108  115 1   
   117  108  116 1   
   118  108  117 1   
   119  109  118 1   
   120  109  119 1   
   121  109  120 1   
   122  121  122 1   
   123  121  127 1   
   124  122  123 1   
   125  122  125 1   
   126  122  128 1   
   127  123  124 2   
   128  123  132 1   
   129  125  126 1   
   130  125  129 1   
   131  125  130 1   
   132  126  131 1   
   133  132  133 1   
   134  132  137 1   
   135  133  134 1   
   136  133  136 1   
   137  133  138 1   
   138  134  135 2   
   139  134  142 1   
   140  136  139 1   
   141  136  140 1   
   142  136  141 1   
   143  142  143 1   
   144  142  147 1   
   145  143  144 1   
   146  143  146 1   
   147  143  148 1   
   148  144  145 2   
   149  144  152 1   
   150  146  149 1   
   151  146  150 1   
   152  146  151 1   
   153  152  153 1   
   154  152  161 1   
   155  153  154 1   
   156  153  156 1   
   157  153  162 1   
   158  154  155 2   
   159  154  167 1   
   160  156  157 1   
   161  156  163 1   
   162  156  164 1   
   163  157  158 1   
   164  157  165 1   
   165  157  166 1   
   166  158  159 1   
   167  158  160 1   
   168  167  168 1   
   169  167  172 1   
   170  168  169 1   
   171  168  170 1   
   172  168  171 1   
   173  174  175 1   
   174  174  176 1   
   175  177  178 1   
   176  177  179 1   
   177  180  181 1   
   178  180  182 1   
   179  183  184 1   
   180  183  185 1   
   181  186  187 1   
   182  186  188 1   
@<TRIPOS>SUBSTRUCTURE
     1 MOL         1 TEMP              0 ****  ****    0 ROOT
