@<TRIPOS>MOLECULE
MOL
  192   187     1     0     0
SMALL
resp


@<TRIPOS>ATOM
      1 C1          4.4350    4.3980   -3.0750 c3        1 MOL     -0.412313
      2 C2          5.1720    3.3400   -2.1950 c         1 MOL      0.685420
      3 O1          4.6110    2.8660   -1.1940 o         1 MOL     -0.637423
      4 H1          3.5310    3.9550   -3.4930 hc        1 MOL      0.113789
      5 H2          4.1670    5.2580   -2.4620 hc        1 MOL      0.113789
      6 H3          5.0900    4.7180   -3.8850 hc        1 MOL      0.113789
      7 N1          6.3300    2.8690   -2.6330 n         1 MOL     -0.695782
      8 C3          7.0190    1.7170   -2.0100 c3        1 MOL      0.251568
      9 C4          6.1360    0.4960   -1.6890 c         1 MOL      0.429815
     10 O2          5.8810    0.1370   -0.5470 o         1 MOL     -0.559827
     11 C5          8.0630    2.0890   -0.8890 c3        1 MOL     -0.017387
     12 C6          7.6070    2.9310    0.2420 c         1 MOL      0.743066
     13 O3          6.9010    2.4200    1.1340 o         1 MOL     -0.744797
     14 O4          7.9720    4.1530    0.4250 o         1 MOL     -0.744797
     15 H4          6.7760    3.2540   -3.4380 hn        1 MOL      0.369723
     16 H5          7.6630    1.3640   -2.8230 h1        1 MOL      0.002169
     17 H6          8.7530    2.7220   -1.4500 hc        1 MOL     -0.016917
     18 H7          8.5850    1.1810   -0.5760 hc        1 MOL     -0.016917
     19 N2          5.6470   -0.1560   -2.7800 n         1 MOL     -0.445842
     20 C7          4.9430   -1.4670   -2.9890 c3        1 MOL      0.022302
     21 C8          5.7100   -2.7080   -2.4530 c         1 MOL      0.334040
     22 O5          5.8430   -3.7500   -3.0830 o         1 MOL     -0.538507
     23 C9          3.5140   -1.4530   -2.4230 c3        1 MOL      0.295247
     24 C10         2.7300   -2.6800   -2.9680 c3        1 MOL     -0.159744
     25 C11         2.7280   -0.1280   -2.7360 c3        1 MOL     -0.564338
     26 C12         2.3390   -2.6580   -4.4730 c3        1 MOL     -0.060249
     27 H8          5.9200    0.2990   -3.6400 hn        1 MOL      0.262020
     28 H9          4.9210   -1.5960   -4.0710 h1        1 MOL      0.071733
     29 H10         3.5550   -1.5540   -1.3340 hc        1 MOL     -0.072008
     30 H11         1.7740   -2.6580   -2.4440 hc        1 MOL      0.065003
     31 H12         3.2530   -3.6090   -2.7300 hc        1 MOL      0.065003
     32 H13         1.7530   -0.2560   -2.2570 hc        1 MOL      0.153766
     33 H14         3.2730    0.6550   -2.1980 hc        1 MOL      0.153766
     34 H15         2.5730    0.0320   -3.7940 hc        1 MOL      0.153766
     35 H16         1.8480   -1.7120   -4.6880 hc        1 MOL      0.003466
     36 H17         3.1770   -2.6340   -5.1720 hc        1 MOL      0.003466
     37 H18         1.6970   -3.5030   -4.7160 hc        1 MOL      0.003466
     38 N3          6.1580   -2.5800   -1.1880 n         1 MOL     -0.050294
     39 C13         6.8940   -3.6320   -0.4670 c3        1 MOL      0.024880
     40 C14         6.1790   -4.9820   -0.3270 c         1 MOL      0.584334
     41 O6          6.8140   -6.0260   -0.5570 o         1 MOL     -0.608041
     42 C15         7.3480   -3.0930    0.9030 c3        1 MOL     -0.227192
     43 C16         8.4200   -1.9980    0.8490 c         1 MOL      0.779767
     44 O7          8.4260   -1.1870    1.7560 o         1 MOL     -0.730005
     45 O8          9.2200   -2.0640   -0.0780 o         1 MOL     -0.730005
     46 H19         5.9950   -1.6730   -0.7560 hn        1 MOL      0.146259
     47 H20         7.7740   -3.7570   -1.0900 h1        1 MOL      0.040466
     48 H21         7.9350   -3.8940    1.3500 hc        1 MOL      0.056180
     49 H22         6.4930   -2.8360    1.5170 hc        1 MOL      0.056180
     50 N4          4.9410   -5.1490    0.0910 n         1 MOL     -0.541368
     51 C17         4.0410   -4.1440    0.6470 c3        1 MOL      0.243434
     52 C18         4.1180   -3.9310    2.1800 c         1 MOL      0.283150
     53 O9          4.9670   -4.4410    2.8750 o         1 MOL     -0.533234
     54 H23         4.6110   -6.1050    0.1660 hn        1 MOL      0.299221
     55 H24         3.0200   -4.4240    0.3620 h1        1 MOL     -0.015795
     56 H25         4.1420   -3.2080    0.0940 h1        1 MOL     -0.015795
     57 N5          3.3240   -3.1060    2.7660 n         1 MOL     -0.086696
     58 C19         2.1080   -2.4440    2.3090 c3        1 MOL     -0.168752
     59 C20         2.3360   -1.3050    1.3000 c         1 MOL      0.171556
     60 O10         3.4090   -0.7990    1.0530 o         1 MOL     -0.286845
     61 C21         1.3690   -2.0580    3.6320 c3        1 MOL     -0.335707
     62 C22         2.3010   -1.3550    4.6570 c         1 MOL      0.757875
     63 O11         1.9660   -0.1970    5.0200 o         1 MOL     -0.664270
     64 O12         3.2340   -1.9980    5.2420 o         1 MOL     -0.664270
     65 H26         3.5310   -3.1410    3.7530 hn        1 MOL      0.209830
     66 H27         1.4380   -3.1880    1.8820 h1        1 MOL      0.113918
     67 H28         1.0430   -2.9690    4.1310 hc        1 MOL      0.082945
     68 H29         0.4850   -1.4710    3.3900 hc        1 MOL      0.082945
     69 N6          1.3330   -0.7880    0.6550 n         1 MOL      0.099340
     70 C23        -0.0950   -1.1680    0.8420 c3        1 MOL      0.009714
     71 C24        -0.5790   -2.5970    0.4200 c         1 MOL      0.489393
     72 O13         0.1710   -3.2650   -0.3080 o         1 MOL     -0.496457
     73 H30         1.5690    0.0970    0.2370 hn        1 MOL     -0.059626
     74 H31        -0.6480   -0.5340    0.1500 h1        1 MOL      0.037750
     75 H32        -0.4600   -0.9370    1.8430 h1        1 MOL      0.037750
     76 N7         -1.8300   -3.0110    0.8230 n         1 MOL     -0.492635
     77 C25        -2.5140   -4.2030    0.3320 c3        1 MOL      0.218417
     78 C26        -3.1610   -3.9950   -1.0380 c         1 MOL      0.439536
     79 O14        -3.3870   -4.9960   -1.7580 o         1 MOL     -0.549408
     80 C27        -3.3610   -5.0180    1.3560 c3        1 MOL      0.003217
     81 C28        -4.5630   -4.4030    2.0920 c3        1 MOL     -0.138516
     82 C29        -5.6790   -3.9410    1.1430 c         1 MOL      0.457883
     83 N8         -6.6030   -4.7730    0.8560 n         1 MOL     -0.595736
     84 O15        -5.7200   -2.8820    0.5370 o         1 MOL     -0.604359
     85 H33        -2.3520   -2.4060    1.4370 hn        1 MOL      0.267919
     86 H34        -1.6800   -4.8130   -0.0020 h1        1 MOL      0.042606
     87 H35        -2.5950   -5.2740    2.0910 hc        1 MOL      0.014229
     88 H36        -3.6510   -5.8840    0.7540 hc        1 MOL      0.014229
     89 H37        -4.1830   -3.5310    2.6310 hc        1 MOL      0.067951
     90 H38        -4.9270   -5.0690    2.8750 hc        1 MOL      0.067951
     91 H39        -6.7000   -5.7200    1.2100 hn        1 MOL      0.327209
     92 H40        -7.2810   -4.3940    0.2190 hn        1 MOL      0.327209
     93 N9         -3.3820   -2.7390   -1.4680 n         1 MOL     -0.107267
     94 C30        -3.7910   -2.3940   -2.8430 c3        1 MOL     -0.204029
     95 C31        -5.1410   -1.7490   -3.0230 c         1 MOL      0.314707
     96 O16        -5.5460   -1.3640   -4.1450 o         1 MOL     -0.540995
     97 C32        -2.6930   -1.6090   -3.5950 c3        1 MOL      0.203094
     98 C33        -1.3930   -2.4070   -3.8570 c3        1 MOL     -0.213669
     99 C34        -2.4140   -0.2990   -2.8010 c3        1 MOL     -0.213669
    100 H41        -3.3360   -1.9150   -0.8890 hn        1 MOL      0.156876
    101 H42        -3.9230   -3.3380   -3.3760 h1        1 MOL      0.132287
    102 H43        -3.1200   -1.1610   -4.4990 hc        1 MOL      0.013939
    103 H44        -0.9810   -1.9490   -4.7550 hc        1 MOL      0.054160
    104 H45        -0.7020   -2.2880   -3.0190 hc        1 MOL      0.054160
    105 H46        -1.5360   -3.4800   -4.0340 hc        1 MOL      0.054160
    106 H47        -1.9070    0.5190   -3.3270 hc        1 MOL      0.054160
    107 H48        -3.3050    0.0870   -2.3180 hc        1 MOL      0.054160
    108 H49        -1.7260   -0.5390   -1.9900 hc        1 MOL      0.054160
    109 N10        -5.8570   -1.4910   -1.9440 n         1 MOL     -0.037151
    110 C35        -7.1480   -0.7390   -1.9190 c3        1 MOL      0.010795
    111 C36        -7.0350    0.6590   -1.2680 c         1 MOL      0.485964
    112 O17        -7.9970    1.4080   -1.3480 o         1 MOL     -0.548118
    113 C37        -8.2000   -1.5090   -1.2220 c3        1 MOL     -0.144038
    114 C38        -8.4660   -2.8270   -1.8120 c         1 MOL      0.610574
    115 N11        -8.5730   -2.9420   -3.0900 n         1 MOL     -0.729236
    116 O18        -8.6940   -3.8050   -1.1430 o         1 MOL     -0.582471
    117 H50        -5.5420   -1.9130   -1.0830 hn        1 MOL      0.181089
    118 H51        -7.3580   -0.6040   -2.9780 h1        1 MOL      0.040448
    119 H52        -9.0780   -0.8870   -1.3180 hc        1 MOL      0.077173
    120 H53        -7.8360   -1.6580   -0.1960 hc        1 MOL      0.077173
    121 H54        -8.4550   -2.1940   -3.7500 hn        1 MOL      0.352631
    122 H55        -8.7420   -3.8800   -3.4340 hn        1 MOL      0.352631
    123 N12        -5.9710    0.9380   -0.5560 n         1 MOL     -0.338141
    124 C39        -5.8240    2.0990    0.4490 c3        1 MOL      0.106371
    125 C40        -4.4960    2.8880    0.2700 c         1 MOL      0.458920
    126 O19        -3.5090    2.2850   -0.0210 o         1 MOL     -0.445481
    127 C41        -5.9110    1.5020    1.8720 c3        1 MOL     -0.075464
    128 C42        -7.1420    0.6880    2.1060 ca        1 MOL      0.049116
    129 C43        -7.0480   -0.7040    2.3140 ca        1 MOL     -0.182245
    130 C44        -8.3980    1.3910    2.1920 ca        1 MOL     -0.182245
    131 C45        -8.2520   -1.4760    2.6100 ca        1 MOL     -0.179728
    132 C46        -9.5700    0.6050    2.4490 ca        1 MOL     -0.179728
    133 C47        -9.4930   -0.7790    2.7770 ca        1 MOL      0.225614
    134 O20       -10.6730   -1.4170    3.0760 oh        1 MOL     -0.495285
    135 H56        -5.1410    0.4010   -0.7430 hn        1 MOL      0.175958
    136 H57        -6.6280    2.7880    0.2350 h1        1 MOL      0.042814
    137 H58        -5.8260    2.2670    2.6420 hc        1 MOL      0.073524
    138 H59        -5.0190    0.9130    2.1080 hc        1 MOL      0.073524
    139 H60        -6.0650   -1.1480    2.2580 ha        1 MOL      0.146633
    140 H61        -8.5480    2.4000    1.8340 ha        1 MOL      0.146633
    141 H62        -8.1760   -2.5400    2.7100 ha        1 MOL      0.124802
    142 H63       -10.5270    1.1150    2.3910 ha        1 MOL      0.124802
    143 H64       -10.5960   -2.3570    2.9360 ho        1 MOL      0.370036
    144 N13        -4.4940    4.2080    0.6060 n         1 MOL     -0.603818
    145 C48        -3.3280    5.0210    0.9180 c3        1 MOL      0.201408
    146 C49        -2.2200    5.3220   -0.1490 c         1 MOL      0.093582
    147 O21        -1.5830    6.3710   -0.1590 o         1 MOL     -0.464701
    148 C50        -2.5250    4.3630    2.0540 c3        1 MOL     -0.016397
    149 C51        -3.1680    4.5080    3.4150 c3        1 MOL     -0.322755
    150 C52        -2.1770    4.5360    4.5090 c         1 MOL      0.735811
    151 O22        -1.8720    3.4440    5.0440 o         1 MOL     -0.727772
    152 O23        -1.7740    5.6560    4.9340 o         1 MOL     -0.727772
    153 H65        -5.3750    4.6540    0.8160 hn        1 MOL      0.327667
    154 H66        -3.7380    5.9540    1.3010 h1        1 MOL      0.077659
    155 H67        -1.5280    4.8020    2.1260 hc        1 MOL      0.095018
    156 H68        -2.2390    3.3490    1.7930 hc        1 MOL      0.095018
    157 H69        -3.8030    3.6090    3.4160 hc        1 MOL      0.033131
    158 H70        -3.8180    5.3820    3.4030 hc        1 MOL      0.033131
    159 N14        -1.9440    4.3950   -1.0840 n         1 MOL      0.043403
    160 C53        -0.8330    4.4700   -2.0390 c3        1 MOL     -0.165347
    161 C54        -1.2060    5.2930   -3.2940 c         1 MOL      0.444822
    162 O24        -0.2840    5.8220   -3.9750 o         1 MOL     -0.539369
    163 C55        -0.2850    3.0760   -2.3190 c3        1 MOL     -0.173243
    164 C56         0.0330    2.2880   -0.9440 c3        1 MOL      0.475388
    165 C57         1.2430    2.7930   -0.1510 c         1 MOL      0.582574
    166 O25         1.3280    3.9950    0.1670 o         1 MOL     -0.634332
    167 O26         2.1630    1.9660    0.1660 o         1 MOL     -0.634332
    168 H71        -2.5770    3.6130   -1.0560 hn        1 MOL      0.146032
    169 H72        -0.1010    5.1150   -1.5630 h1        1 MOL      0.194132
    170 H73         0.6190    3.1690   -2.9290 hc        1 MOL      0.038017
    171 H74        -1.0570    2.5140   -2.8320 hc        1 MOL      0.038017
    172 H75         0.2240    1.2210   -1.1120 hc        1 MOL     -0.190217
    173 H76        -0.8210    2.4010   -0.2730 hc        1 MOL     -0.190217
    174 N15        -2.4920    5.5510   -3.5110 n         1 MOL     -0.187870
    175 C58        -3.0490    6.3570   -4.5950 c3        1 MOL     -0.210809
    176 H77        -3.9980    5.9270   -4.9160 h1        1 MOL      0.088470
    177 H78        -3.2120    7.3760   -4.2440 h1        1 MOL      0.088470
    178 H79        -2.3540    6.3690   -5.4350 h1        1 MOL      0.088470
    179 H80        -3.1760    5.0380   -2.9680 hn        1 MOL      0.185615
    180 Ca1         4.4230    1.5260    1.2060 Ca        1 MOL      1.730059
    181 O27         5.4060    3.0580    3.6920 oh        1 MOL     -0.806138
    182 H81         6.3120    2.8810    3.4300 ho        1 MOL      0.392490
    183 H82         5.3670    4.0060    3.7990 ho        1 MOL      0.392490
    184 O28         2.5900    1.4830    3.2940 oh        1 MOL     -0.806138
    185 H83         2.0610    2.2760    3.3560 ho        1 MOL      0.392490
    186 H84         2.1870    0.8680    3.9000 ho        1 MOL      0.392490
    187 O29         3.9980    4.1500    1.3150 oh        1 MOL     -0.806138
    188 H85         4.5010    4.9460    1.1150 ho        1 MOL      0.392490
    189 H86         3.2960    4.1410    0.6750 ho        1 MOL      0.392490
    190 O30         5.5430   -0.1540    2.9320 oh        1 MOL     -0.806138
    191 H87         5.7070   -1.0810    2.7690 ho        1 MOL      0.392490
    192 H88         6.1880    0.0870    3.5960 ho        1 MOL      0.392490
@<TRIPOS>BOND
     1    1    2 1   
     2    1    4 1   
     3    1    5 1   
     4    1    6 1   
     5    2    3 2   
     6    2    7 1   
     7    7    8 1   
     8    7   15 1   
     9    8    9 1   
    10    8   11 1   
    11    8   16 1   
    12    9   10 2   
    13    9   19 1   
    14   11   12 1   
    15   11   17 1   
    16   11   18 1   
    17   12   13 1   
    18   12   14 1   
    19   19   20 1   
    20   19   27 1   
    21   20   21 1   
    22   20   23 1   
    23   20   28 1   
    24   21   22 2   
    25   21   38 1   
    26   23   24 1   
    27   23   25 1   
    28   23   29 1   
    29   24   26 1   
    30   24   30 1   
    31   24   31 1   
    32   25   32 1   
    33   25   33 1   
    34   25   34 1   
    35   26   35 1   
    36   26   36 1   
    37   26   37 1   
    38   38   39 1   
    39   38   46 1   
    40   39   40 1   
    41   39   42 1   
    42   39   47 1   
    43   40   41 2   
    44   40   50 1   
    45   42   43 1   
    46   42   48 1   
    47   42   49 1   
    48   43   44 1   
    49   43   45 1   
    50   50   51 1   
    51   50   54 1   
    52   51   52 1   
    53   51   55 1   
    54   51   56 1   
    55   52   53 2   
    56   52   57 1   
    57   57   58 1   
    58   57   65 1   
    59   58   59 1   
    60   58   61 1   
    61   58   66 1   
    62   59   60 2   
    63   59   69 1   
    64   61   62 1   
    65   61   67 1   
    66   61   68 1   
    67   62   63 1   
    68   62   64 1   
    69   69   70 1   
    70   69   73 1   
    71   70   71 1   
    72   70   74 1   
    73   70   75 1   
    74   71   72 2   
    75   71   76 1   
    76   76   77 1   
    77   76   85 1   
    78   77   78 1   
    79   77   80 1   
    80   77   86 1   
    81   78   79 2   
    82   78   93 1   
    83   80   81 1   
    84   80   87 1   
    85   80   88 1   
    86   81   82 1   
    87   81   89 1   
    88   81   90 1   
    89   82   83 1   
    90   82   84 2   
    91   83   91 1   
    92   83   92 1   
    93   93   94 1   
    94   93  100 1   
    95   94   95 1   
    96   94   97 1   
    97   94  101 1   
    98   95   96 2   
    99   95  109 1   
   100   97   98 1   
   101   97   99 1   
   102   97  102 1   
   103   98  103 1   
   104   98  104 1   
   105   98  105 1   
   106   99  106 1   
   107   99  107 1   
   108   99  108 1   
   109  109  110 1   
   110  109  117 1   
   111  110  111 1   
   112  110  113 1   
   113  110  118 1   
   114  111  112 2   
   115  111  123 1   
   116  113  114 1   
   117  113  119 1   
   118  113  120 1   
   119  114  115 1   
   120  114  116 2   
   121  115  121 1   
   122  115  122 1   
   123  123  124 1   
   124  123  135 1   
   125  124  125 1   
   126  124  127 1   
   127  124  136 1   
   128  125  126 2   
   129  125  144 1   
   130  127  128 1   
   131  127  137 1   
   132  127  138 1   
   133  128  129 ar  
   134  128  130 ar  
   135  129  131 ar  
   136  129  139 1   
   137  130  132 ar  
   138  130  140 1   
   139  131  133 ar  
   140  131  141 1   
   141  132  133 ar  
   142  132  142 1   
   143  133  134 1   
   144  134  143 1   
   145  144  145 1   
   146  144  153 1   
   147  145  146 1   
   148  145  148 1   
   149  145  154 1   
   150  146  147 2   
   151  146  159 1   
   152  148  149 1   
   153  148  155 1   
   154  148  156 1   
   155  149  150 1   
   156  149  157 1   
   157  149  158 1   
   158  150  151 1   
   159  150  152 1   
   160  159  160 1   
   161  159  168 1   
   162  160  161 1   
   163  160  163 1   
   164  160  169 1   
   165  161  162 2   
   166  161  174 1   
   167  163  164 1   
   168  163  170 1   
   169  163  171 1   
   170  164  165 1   
   171  164  172 1   
   172  164  173 1   
   173  165  166 1   
   174  165  167 1   
   175  174  175 1   
   176  174  179 1   
   177  175  176 1   
   178  175  177 1   
   179  175  178 1   
   180  181  182 1   
   181  181  183 1   
   182  184  185 1   
   183  184  186 1   
   184  187  188 1   
   185  187  189 1   
   186  190  191 1   
   187  190  192 1   
@<TRIPOS>SUBSTRUCTURE
     1 MOL         1 TEMP              0 ****  ****    0 ROOT
