@<TRIPOS>MOLECULE
MOL
  195   189     1     0     0
SMALL
resp


@<TRIPOS>ATOM
      1 C1         -1.9800    8.1560    1.0190 c3        1 MOL     -0.376455
      2 C2         -2.0370    6.6430    1.1080 c         1 MOL      0.641084
      3 O1         -1.7200    6.0470    2.1260 o         1 MOL     -0.571993
      4 H1         -1.9140    8.4560   -0.0270 hc        1 MOL      0.095707
      5 H2         -2.8800    8.5820    1.4620 hc        1 MOL      0.095707
      6 H3         -1.1030    8.5190    1.5560 hc        1 MOL      0.095707
      7 N1         -2.5500    6.0290   -0.0010 n         1 MOL     -0.560230
      8 C3         -2.6850    4.5750   -0.2480 c3        1 MOL      0.416401
      9 C4         -1.3900    3.9380   -0.7510 c         1 MOL      0.473154
     10 O2         -1.3000    3.5120   -1.8980 o         1 MOL     -0.530125
     11 C5         -4.0330    4.1970   -0.9310 c3        1 MOL     -0.497071
     12 C6         -4.4940    5.0940   -2.1570 c         1 MOL      0.757552
     13 O3         -4.0520    6.2540   -2.3680 o         1 MOL     -0.728024
     14 O4         -5.3540    4.6110   -2.9690 o         1 MOL     -0.728024
     15 H4         -2.6660    6.7340   -0.7170 hn        1 MOL      0.297393
     16 H5         -2.8100    4.0700    0.7000 h1        1 MOL      0.000524
     17 H6         -4.7680    4.4230   -0.1580 hc        1 MOL      0.108056
     18 H7         -4.0480    3.1350   -1.1700 hc        1 MOL      0.108056
     19 N2         -0.3500    3.8810    0.0880 n         1 MOL     -0.550995
     20 C7          0.9280    3.2360   -0.1920 c3        1 MOL      0.274709
     21 C8          1.6110    2.7550    1.0820 c         1 MOL      0.616502
     22 O5          1.5660    3.3880    2.0860 o         1 MOL     -0.557923
     23 C9          1.8650    4.2230   -0.9280 c3        1 MOL      0.188162
     24 C10         1.6700    4.4520   -2.4430 c3        1 MOL      0.004329
     25 C11         2.8370    5.4330   -2.8970 c3        1 MOL     -0.059893
     26 C12         3.1200    5.2880   -4.3790 c3        1 MOL      0.031583
     27 N3          4.2640    6.1750   -4.8070 n4        1 MOL     -0.351501
     28 H8         -0.4290    4.3340    0.9900 hn        1 MOL      0.239592
     29 H9          0.7050    2.4340   -0.8820 h1        1 MOL      0.091978
     30 H10         2.8730    3.8520   -0.7210 hc        1 MOL     -0.065597
     31 H11         1.7780    5.1630   -0.3870 hc        1 MOL     -0.065597
     32 H12         0.6870    4.9160   -2.5460 hc        1 MOL      0.012574
     33 H13         1.6960    3.5130   -2.9840 hc        1 MOL      0.012574
     34 H14         3.7610    5.2100   -2.3680 hc        1 MOL      0.032704
     35 H15         2.5210    6.4430   -2.6360 hc        1 MOL      0.032704
     36 H16         2.2800    5.5300   -5.0310 hx        1 MOL      0.083983
     37 H17         3.5180    4.2840   -4.5220 hx        1 MOL      0.083983
     38 H18         4.2500    7.0990   -4.3910 hn        1 MOL      0.323527
     39 H19         5.0570    5.6540   -4.4730 hn        1 MOL      0.323527
     40 H20         4.2610    6.2980   -5.8130 hn        1 MOL      0.323527
     41 N4          2.2810    1.5790    1.1290 n         1 MOL     -0.675792
     42 C13         2.3570    0.5440    0.0590 c3        1 MOL     -0.005320
     43 C14         2.8350    1.0170   -1.3260 c         1 MOL      0.260985
     44 O6          2.1830    0.7450   -2.3030 o         1 MOL     -0.491974
     45 C15         1.1650   -0.4200    0.0810 c3        1 MOL      0.026868
     46 C16         0.6470   -0.6310    1.4260 c         1 MOL      0.559204
     47 O7         -0.3220    0.0140    1.8590 o         1 MOL     -0.734266
     48 O8          1.0740   -1.5790    2.1530 o         1 MOL     -0.734266
     49 H21         2.7610    1.4540    2.0080 hn        1 MOL      0.324488
     50 H22         3.1900   -0.1210    0.2920 h1        1 MOL      0.201028
     51 H23         1.5510   -1.3740   -0.2810 hc        1 MOL      0.042809
     52 H24         0.3330   -0.0490   -0.5170 hc        1 MOL      0.042809
     53 N5          3.9980    1.6340   -1.5410 n         1 MOL     -0.248532
     54 C17         5.0670    1.9860   -0.4260 c3        1 MOL     -0.012326
     55 C18         6.2430    2.7260   -0.9010 c         1 MOL      0.396322
     56 O9          6.1790    3.4630   -1.8500 o         1 MOL     -0.528218
     57 H25         4.1860    1.8550   -2.5110 hn        1 MOL      0.294103
     58 H26         5.3840    1.0450    0.0060 h1        1 MOL      0.071689
     59 H27         4.5650    2.5690    0.3550 h1        1 MOL      0.071689
     60 N6          7.4050    2.6490   -0.2420 n         1 MOL     -0.402933
     61 C19         7.7770    1.7220    0.8680 c3        1 MOL      0.224377
     62 C20         8.0270    0.2570    0.3350 c         1 MOL      0.494074
     63 O10         8.1090    0.0400   -0.8910 o         1 MOL     -0.477934
     64 C21         9.0360    2.0900    1.6390 c3        1 MOL     -0.312046
     65 C22        10.3070    2.4000    0.8600 c         1 MOL      0.746023
     66 O11        11.2180    3.0610    1.3990 o         1 MOL     -0.689461
     67 O12        10.3430    2.0290   -0.3290 o         1 MOL     -0.689461
     68 H28         8.1510    3.2280   -0.5970 hn        1 MOL      0.320647
     69 H29         6.9130    1.6820    1.5240 h1        1 MOL     -0.058647
     70 H30         9.2770    1.3320    2.3810 hc        1 MOL      0.033149
     71 H31         8.8740    3.0570    2.1070 hc        1 MOL      0.033149
     72 N7          8.2670   -0.7140    1.2320 n         1 MOL     -0.269669
     73 C23         8.4680   -2.1460    0.9120 c3        1 MOL     -0.337159
     74 C24         7.2160   -3.0250    0.8470 c         1 MOL      0.492271
     75 O13         7.3040   -4.2530    0.6920 o         1 MOL     -0.554340
     76 H32         8.2510   -0.4310    2.2050 hn        1 MOL      0.237859
     77 H33         9.0550   -2.5510    1.7370 h1        1 MOL      0.184391
     78 H34         9.0720   -2.2260    0.0120 h1        1 MOL      0.184391
     79 N8          6.0540   -2.4210    0.6590 n         1 MOL     -0.150066
     80 C25         4.6850   -3.0430    0.4280 c3        1 MOL      0.049165
     81 C26         4.0800   -2.6610   -0.9730 c         1 MOL      0.578805
     82 O14         4.4250   -1.6480   -1.5510 o         1 MOL     -0.525790
     83 C27         3.7650   -2.8530    1.6260 c3        1 MOL      0.395636
     84 C28         4.3220   -3.4620    2.8950 c3        1 MOL     -0.286266
     85 O15         2.5790   -3.5060    1.3760 oh        1 MOL     -0.650466
     86 H35         6.0200   -1.4170    0.6580 hn        1 MOL      0.007837
     87 H36         4.8640   -4.1020    0.2890 h1        1 MOL      0.044709
     88 H37         3.4700   -1.8020    1.6970 h1        1 MOL     -0.064473
     89 H38         1.8250   -2.9220    1.5460 ho        1 MOL      0.503652
     90 H39         5.1170   -2.7540    3.1670 hc        1 MOL      0.052749
     91 H40         3.6330   -3.5600    3.7330 hc        1 MOL      0.052749
     92 H41         4.8180   -4.4220    2.7700 hc        1 MOL      0.052749
     93 N9          3.1690   -3.4920   -1.4420 n         1 MOL     -0.447909
     94 C29         2.4040   -3.4000   -2.6900 c3        1 MOL     -0.086968
     95 C30         0.9260   -3.7340   -2.5960 c         1 MOL      0.456879
     96 O16         0.2610   -4.0520   -3.6260 o         1 MOL     -0.541988
     97 C31         3.0720   -4.0270   -3.9350 c3        1 MOL      0.104576
     98 C32         3.1360   -5.5300   -3.8680 c3        1 MOL      0.299107
     99 C33         4.5060   -3.4530   -4.1450 c3        1 MOL     -0.435771
    100 C34         3.3120   -6.2850   -5.1860 c3        1 MOL     -0.322560
    101 H42         2.8350   -4.2170   -0.8220 hn        1 MOL      0.245683
    102 H43         2.4120   -2.3160   -2.8370 h1        1 MOL      0.163875
    103 H44         2.4660   -3.7760   -4.8020 hc        1 MOL      0.022448
    104 H45         2.2030   -5.8670   -3.4290 hc        1 MOL     -0.056709
    105 H46         3.8670   -5.9270   -3.1580 hc        1 MOL     -0.056709
    106 H47         4.4770   -2.3620   -4.1820 hc        1 MOL      0.118979
    107 H48         5.1280   -3.7830   -3.3190 hc        1 MOL      0.118979
    108 H49         4.8140   -3.8260   -5.1210 hc        1 MOL      0.118979
    109 H50         4.3810   -6.2610   -5.4010 hc        1 MOL      0.067643
    110 H51         3.0580   -7.3270   -5.0420 hc        1 MOL      0.067643
    111 H52         2.6330   -5.9010   -5.9510 hc        1 MOL      0.067643
    112 N10         0.3510   -3.7310   -1.3920 n         1 MOL     -0.267269
    113 C35        -1.1030   -3.8470   -1.0290 c3        1 MOL     -0.043372
    114 C36        -2.0220   -2.8050   -1.7720 c         1 MOL      0.631363
    115 O17        -1.7440   -1.6390   -1.8070 o         1 MOL     -0.496347
    116 C37        -1.3050   -3.6840    0.4330 c3        1 MOL      0.215760
    117 C38        -0.7530   -4.8530    1.3150 c3        1 MOL     -0.207393
    118 O18        -2.6460   -3.7490    0.7070 oh        1 MOL     -0.563600
    119 H53         0.9040   -3.4700   -0.6010 hn        1 MOL      0.134274
    120 H54        -1.4140   -4.8520   -1.3190 h1        1 MOL      0.104173
    121 H55        -0.9350   -2.7000    0.7180 h1        1 MOL      0.126296
    122 H56        -2.7140   -3.1650    1.4660 ho        1 MOL      0.368485
    123 H57        -0.8940   -4.7300    2.3940 hc        1 MOL      0.046780
    124 H58        -1.2140   -5.7730    0.9450 hc        1 MOL      0.046780
    125 H59         0.3180   -4.9040    1.1560 hc        1 MOL      0.046780
    126 N11        -3.1710   -3.2530   -2.2860 n         1 MOL     -0.627583
    127 C39        -4.3340   -2.3640   -2.5680 c3        1 MOL     -0.056816
    128 C40        -5.5310   -2.7220   -1.7230 c         1 MOL      0.657585
    129 O19        -5.9280   -3.9400   -1.7080 o         1 MOL     -0.548325
    130 C41        -4.7970   -2.4720   -4.0240 c3        1 MOL      0.601503
    131 C42        -3.7340   -2.4440   -5.1190 c3        1 MOL     -0.369579
    132 O20        -5.7790   -1.4670   -4.2260 oh        1 MOL     -0.819538
    133 H60        -3.1800   -4.2620   -2.3700 hn        1 MOL      0.317438
    134 H61        -4.0530   -1.3360   -2.3600 h1        1 MOL      0.111305
    135 H62        -5.3350   -3.4100   -4.0910 h1        1 MOL     -0.067884
    136 H63        -5.7140   -1.1520   -5.1310 ho        1 MOL      0.435929
    137 H64        -3.3190   -1.4430   -5.0860 hc        1 MOL      0.097652
    138 H65        -3.0390   -3.2930   -5.1310 hc        1 MOL      0.097652
    139 H66        -4.2630   -2.4730   -6.0710 hc        1 MOL      0.097652
    140 N12        -6.1030   -1.8260   -0.9060 n         1 MOL     -0.456874
    141 C43        -7.1980   -2.0230    0.1360 c3        1 MOL     -0.175361
    142 C44        -7.0930   -1.3930    1.5070 c         1 MOL      0.591382
    143 O21        -7.8500   -1.6940    2.4050 o         1 MOL     -0.537446
    144 C45        -8.5250   -1.6220   -0.5150 c3        1 MOL     -0.087297
    145 C46        -8.6580   -0.1100   -0.7490 c3        1 MOL     -0.062997
    146 C47        -9.6250    0.1450   -1.9610 c3        1 MOL     -0.197450
    147 C48        -8.9220   -0.1940   -3.2440 c3        1 MOL      0.124229
    148 N13        -9.9030   -0.4110   -4.3160 n4        1 MOL     -0.378665
    149 H67        -5.7900   -0.8700   -0.9990 hn        1 MOL      0.297905
    150 H68        -7.1890   -3.1010    0.2940 h1        1 MOL      0.159294
    151 H69        -9.4130   -1.9130    0.0410 hc        1 MOL      0.048651
    152 H70        -8.5470   -2.1410   -1.4770 hc        1 MOL      0.048651
    153 H71        -7.6950    0.3840   -0.8570 hc        1 MOL      0.075205
    154 H72        -9.0800    0.2130    0.2000 hc        1 MOL      0.075205
    155 H73        -9.8810    1.1990   -1.9140 hc        1 MOL      0.086879
    156 H74       -10.5320   -0.4460   -1.7930 hc        1 MOL      0.086879
    157 H75        -8.2550   -1.0530   -3.2270 hx        1 MOL      0.092727
    158 H76        -8.2850    0.6640   -3.4990 hx        1 MOL      0.092727
    159 H77        -9.5020   -0.7630   -5.1770 hn        1 MOL      0.314606
    160 H78       -10.3130   -1.2440   -3.9260 hn        1 MOL      0.314606
    161 H79       -10.5640    0.3450   -4.4800 hn        1 MOL      0.314606
    162 N14        -6.0780   -0.5240    1.7150 n         1 MOL     -0.043142
    163 C49        -5.8310    0.2100    2.9430 c3        1 MOL     -0.813447
    164 C50        -5.9840    1.6930    2.7160 c         1 MOL      0.618927
    165 O22        -5.2910    2.1840    1.8550 o         1 MOL     -0.456364
    166 C51        -4.4320   -0.2090    3.5500 c3        1 MOL      0.108856
    167 C52        -4.4150   -1.8020    3.7000 c3        1 MOL     -0.149998
    168 C53        -2.9500   -2.1420    3.9870 c         1 MOL      0.736402
    169 O23        -2.5370   -2.2090    5.1910 o         1 MOL     -0.773493
    170 O24        -2.1740   -2.1620    2.9990 o         1 MOL     -0.773493
    171 H80        -5.3430   -0.5390    1.0200 hn        1 MOL      0.201666
    172 H81        -6.5630   -0.0710    3.6950 h1        1 MOL      0.244698
    173 H82        -4.2530    0.2490    4.5290 hc        1 MOL      0.135783
    174 H83        -3.6790    0.1000    2.8270 hc        1 MOL      0.135783
    175 H84        -4.7410   -2.1520    2.7170 hc        1 MOL      0.045102
    176 H85        -5.1070   -2.1120    4.4810 hc        1 MOL      0.045102
    177 N15        -6.9030    2.3630    3.5220 n         1 MOL     -0.331112
    178 C54        -7.3130    3.7470    3.3260 c3        1 MOL     -0.225886
    179 H86        -7.3600    3.9640    2.2590 h1        1 MOL      0.109905
    180 H87        -8.2960    3.9010    3.7710 h1        1 MOL      0.109905
    181 H88        -6.5910    4.4110    3.8000 h1        1 MOL      0.109905
    182 H89        -7.4870    1.8800    4.1890 hn        1 MOL      0.276192
    183 Ca1         0.0590   -1.2390    4.4800 Ca        1 MOL      1.809412
    184 O25        -1.4950    1.2010    3.8260 oh        1 MOL     -0.944056
    185 H90        -1.3000    0.8090    2.9790 ho        1 MOL      0.456462
    186 H91        -0.8930    1.9390    3.9000 ho        1 MOL      0.456462
    187 O26         2.6310   -1.6500    4.7760 oh        1 MOL     -0.944056
    188 H92         3.3570   -1.0500    4.9630 ho        1 MOL      0.456462
    189 H93         3.0500   -2.5090    4.6980 ho        1 MOL      0.456462
    190 O27        -1.1200    0.2960    6.5200 oh        1 MOL     -0.944056
    191 H94        -1.2750   -0.0400    7.4040 ho        1 MOL      0.456462
    192 H95        -1.4360    1.1910    6.5360 ho        1 MOL      0.456462
    193 O28         0.5340   -3.9130    4.7630 oh        1 MOL     -0.944056
    194 H96         0.3530   -3.9300    5.7090 ho        1 MOL      0.456462
    195 H97         0.6180   -4.8350    4.5280 ho        1 MOL      0.456462
@<TRIPOS>BOND
     1    1    2 1   
     2    1    4 1   
     3    1    5 1   
     4    1    6 1   
     5    2    3 2   
     6    2    7 1   
     7    7    8 1   
     8    7   15 1   
     9    8    9 1   
    10    8   11 1   
    11    8   16 1   
    12    9   10 2   
    13    9   19 1   
    14   11   12 1   
    15   11   17 1   
    16   11   18 1   
    17   12   13 1   
    18   12   14 1   
    19   19   20 1   
    20   19   28 1   
    21   20   21 1   
    22   20   23 1   
    23   20   29 1   
    24   21   22 2   
    25   21   41 1   
    26   23   24 1   
    27   23   30 1   
    28   23   31 1   
    29   24   25 1   
    30   24   32 1   
    31   24   33 1   
    32   25   26 1   
    33   25   34 1   
    34   25   35 1   
    35   26   27 1   
    36   26   36 1   
    37   26   37 1   
    38   27   38 1   
    39   27   39 1   
    40   27   40 1   
    41   41   42 1   
    42   41   49 1   
    43   42   43 1   
    44   42   45 1   
    45   42   50 1   
    46   43   44 2   
    47   43   53 1   
    48   45   46 1   
    49   45   51 1   
    50   45   52 1   
    51   46   47 1   
    52   46   48 1   
    53   53   54 1   
    54   53   57 1   
    55   54   55 1   
    56   54   58 1   
    57   54   59 1   
    58   55   56 2   
    59   55   60 1   
    60   60   61 1   
    61   60   68 1   
    62   61   62 1   
    63   61   64 1   
    64   61   69 1   
    65   62   63 2   
    66   62   72 1   
    67   64   65 1   
    68   64   70 1   
    69   64   71 1   
    70   65   66 1   
    71   65   67 1   
    72   72   73 1   
    73   72   76 1   
    74   73   74 1   
    75   73   77 1   
    76   73   78 1   
    77   74   75 2   
    78   74   79 1   
    79   79   80 1   
    80   79   86 1   
    81   80   81 1   
    82   80   83 1   
    83   80   87 1   
    84   81   82 2   
    85   81   93 1   
    86   83   84 1   
    87   83   85 1   
    88   83   88 1   
    89   84   90 1   
    90   84   91 1   
    91   84   92 1   
    92   85   89 1   
    93   93   94 1   
    94   93  101 1   
    95   94   95 1   
    96   94   97 1   
    97   94  102 1   
    98   95   96 2   
    99   95  112 1   
   100   97   98 1   
   101   97   99 1   
   102   97  103 1   
   103   98  100 1   
   104   98  104 1   
   105   98  105 1   
   106   99  106 1   
   107   99  107 1   
   108   99  108 1   
   109  100  109 1   
   110  100  110 1   
   111  100  111 1   
   112  112  113 1   
   113  112  119 1   
   114  113  114 1   
   115  113  116 1   
   116  113  120 1   
   117  114  115 2   
   118  114  126 1   
   119  116  117 1   
   120  116  118 1   
   121  116  121 1   
   122  117  123 1   
   123  117  124 1   
   124  117  125 1   
   125  118  122 1   
   126  126  127 1   
   127  126  133 1   
   128  127  128 1   
   129  127  130 1   
   130  127  134 1   
   131  128  129 2   
   132  128  140 1   
   133  130  131 1   
   134  130  132 1   
   135  130  135 1   
   136  131  137 1   
   137  131  138 1   
   138  131  139 1   
   139  132  136 1   
   140  140  141 1   
   141  140  149 1   
   142  141  142 1   
   143  141  144 1   
   144  141  150 1   
   145  142  143 2   
   146  142  162 1   
   147  144  145 1   
   148  144  151 1   
   149  144  152 1   
   150  145  146 1   
   151  145  153 1   
   152  145  154 1   
   153  146  147 1   
   154  146  155 1   
   155  146  156 1   
   156  147  148 1   
   157  147  157 1   
   158  147  158 1   
   159  148  159 1   
   160  148  160 1   
   161  148  161 1   
   162  162  163 1   
   163  162  171 1   
   164  163  164 1   
   165  163  166 1   
   166  163  172 1   
   167  164  165 2   
   168  164  177 1   
   169  166  167 1   
   170  166  173 1   
   171  166  174 1   
   172  167  168 1   
   173  167  175 1   
   174  167  176 1   
   175  168  169 1   
   176  168  170 1   
   177  177  178 1   
   178  177  182 1   
   179  178  179 1   
   180  178  180 1   
   181  178  181 1   
   182  184  185 1   
   183  184  186 1   
   184  187  188 1   
   185  187  189 1   
   186  190  191 1   
   187  190  192 1   
   188  193  194 1   
   189  193  195 1   
@<TRIPOS>SUBSTRUCTURE
     1 MOL         1 TEMP              0 ****  ****    0 ROOT
