@<TRIPOS>MOLECULE
MOL
  181   177     1     0     0
SMALL
resp


@<TRIPOS>ATOM
      1 C1          4.0290   -1.4310    3.9230 c3        1 MOL     -0.536332
      2 C2          5.2210   -0.6730    3.3520 c         1 MOL      0.672004
      3 O1          5.0800    0.4430    2.8600 o         1 MOL     -0.589960
      4 H1          4.3030   -2.4730    4.0800 hc        1 MOL      0.151115
      5 H2          3.7350   -0.9850    4.8740 hc        1 MOL      0.151115
      6 H3          3.1940   -1.3770    3.2230 hc        1 MOL      0.151115
      7 N1          6.4560   -1.2210    3.3590 n         1 MOL     -0.608909
      8 C3          7.6260   -0.7190    2.5870 c3        1 MOL      0.379295
      9 C4          7.4120   -0.7960    1.0510 c         1 MOL      0.587869
     10 O2          6.7950   -1.7300    0.5260 o         1 MOL     -0.491325
     11 C5          8.9360   -1.3530    3.0300 c3        1 MOL     -0.255598
     12 C6          8.9620   -2.8780    2.9500 c         1 MOL      0.676731
     13 O3         10.0210   -3.4060    3.3250 o         1 MOL     -0.708256
     14 O4          7.9460   -3.5190    2.5060 o         1 MOL     -0.708256
     15 H4          6.6260   -2.1130    3.8030 hn        1 MOL      0.301513
     16 H5          7.7370    0.3370    2.8320 h1        1 MOL     -0.053726
     17 H6          8.9830   -1.1030    4.0850 hc        1 MOL      0.027058
     18 H7          9.8050   -0.9080    2.5460 hc        1 MOL      0.027058
     19 N2          7.9290    0.2310    0.3990 n         1 MOL     -0.832547
     20 C7          7.6220    0.3930   -1.0210 c3        1 MOL      0.769135
     21 C8          6.2220    0.8310   -1.2180 c         1 MOL      0.425764
     22 O5          5.5960    1.1630   -0.2390 o         1 MOL     -0.517942
     23 C9          8.6710    1.2030   -1.6940 c3        1 MOL     -0.345639
     24 H8          8.3860    0.9770    0.9070 hn        1 MOL      0.345898
     25 H9          7.6830   -0.5930   -1.4790 h1        1 MOL     -0.083753
     26 H10         9.6730    0.7940   -1.5910 hc        1 MOL      0.061185
     27 H11         8.4730    1.2270   -2.7610 hc        1 MOL      0.061185
     28 H12         8.5540    2.1930   -1.2570 hc        1 MOL      0.061185
     29 N3          5.6690    0.9240   -2.4850 n         1 MOL     -0.703991
     30 C10         4.3670    1.3450   -2.8630 c3        1 MOL      0.178521
     31 C11         4.4920    2.7500   -3.4960 c         1 MOL      0.568909
     32 O6          5.3320    3.0590   -4.3610 o         1 MOL     -0.544933
     33 C12         3.6870    0.3710   -3.8420 c3        1 MOL     -0.235552
     34 C13         3.9030   -1.0810   -3.6080 c         1 MOL      0.896243
     35 O7          4.9350   -1.6790   -3.9000 o         1 MOL     -0.801893
     36 O8          2.9540   -1.7080   -3.0610 o         1 MOL     -0.801893
     37 H13         6.3300    0.7920   -3.2410 hn        1 MOL      0.337274
     38 H14         3.7170    1.3720   -1.9890 h1        1 MOL      0.123023
     39 H15         3.9610    0.5300   -4.8880 hc        1 MOL      0.039007
     40 H16         2.6430    0.6440   -3.6790 hc        1 MOL      0.039007
     41 N4          3.5150    3.5360   -3.1280 n         1 MOL     -0.467680
     42 C14         3.5600    4.9220   -3.5560 c3        1 MOL      0.179633
     43 C15         2.2780    5.5690   -3.9820 c         1 MOL      0.385195
     44 O9          2.2100    6.3080   -4.9720 o         1 MOL     -0.486444
     45 H17         2.7630    3.2680   -2.5080 hn        1 MOL      0.229688
     46 H18         4.2710    5.1020   -4.3540 h1        1 MOL      0.022710
     47 H19         3.9540    5.5440   -2.7480 h1        1 MOL      0.022710
     48 N5          1.1890    5.1560   -3.2640 n         1 MOL     -0.463944
     49 C16        -0.1780    5.6840   -3.3940 c3        1 MOL      0.313101
     50 C17        -0.5810    6.4650   -2.1400 c         1 MOL      0.396384
     51 O10        -1.5340    7.2390   -2.1850 o         1 MOL     -0.464230
     52 C18        -1.1020    4.5350   -3.7020 c3        1 MOL     -0.228878
     53 C19        -2.4570    4.8760   -4.2150 c         1 MOL      0.672112
     54 N6         -3.4560    4.2090   -3.6650 n         1 MOL     -0.795370
     55 O11        -2.7130    5.7950   -4.9780 o         1 MOL     -0.554505
     56 H20         1.4400    4.4130   -2.6210 hn        1 MOL      0.291532
     57 H21        -0.2450    6.4360   -4.1790 h1        1 MOL      0.049546
     58 H22        -1.2150    3.9090   -2.8110 hc        1 MOL      0.056152
     59 H23        -0.6740    3.8140   -4.4010 hc        1 MOL      0.056152
     60 H24        -3.2010    3.5040   -2.9870 hn        1 MOL      0.370550
     61 H25        -4.4080    4.5660   -3.6590 hn        1 MOL      0.370550
     62 N7          0.1510    6.3750   -1.0360 n         1 MOL     -0.377551
     63 C20        -0.2280    6.9110    0.2460 c3        1 MOL     -0.157219
     64 C21        -1.3950    6.2440    1.0070 c         1 MOL      0.554503
     65 O12        -2.1620    5.4680    0.3830 o         1 MOL     -0.482264
     66 H26         1.0300    5.8860   -0.9940 hn        1 MOL      0.265844
     67 H27        -0.3710    7.9940    0.2700 h1        1 MOL      0.101570
     68 H28         0.6560    6.7140    0.8530 h1        1 MOL      0.101570
     69 N8         -1.6790    6.4380    2.3020 n         1 MOL     -0.358544
     70 C22        -2.9080    6.0520    2.9650 c3        1 MOL     -0.302283
     71 C23        -3.0770    4.5820    3.3830 c         1 MOL      0.590444
     72 O13        -4.2350    4.1560    3.4780 o         1 MOL     -0.553815
     73 C24        -3.2950    6.9350    4.1880 c3        1 MOL      0.619072
     74 C25        -2.3620    6.8780    5.4370 c3        1 MOL     -0.408016
     75 O14        -3.4150    8.2680    3.8820 oh        1 MOL     -0.636874
     76 H29        -1.0700    7.0430    2.8390 hn        1 MOL      0.220117
     77 H30        -3.7240    6.2620    2.2660 h1        1 MOL      0.157945
     78 H31        -4.3010    6.6230    4.4560 h1        1 MOL     -0.007054
     79 H32        -2.4960    8.5320    3.8160 ho        1 MOL      0.362575
     80 H33        -1.3660    6.5570    5.1330 hc        1 MOL      0.092356
     81 H34        -2.4660    7.7560    6.0730 hc        1 MOL      0.092356
     82 H35        -2.8350    6.1510    6.0880 hc        1 MOL      0.092356
     83 N9         -1.9990    3.7940    3.6100 n         1 MOL     -0.477690
     84 C26        -2.1890    2.3510    3.7790 c3        1 MOL      0.056924
     85 C27        -1.4880    1.5690    2.6700 c         1 MOL      0.728263
     86 O15        -0.4360    2.0150    2.1560 o         1 MOL     -0.552653
     87 C28        -1.6300    1.9880    5.1640 c3        1 MOL      0.051598
     88 C29        -2.3470    2.6920    6.3890 c3        1 MOL      0.001259
     89 C30        -1.5420    0.4850    5.3830 c3        1 MOL     -0.065829
     90 C31        -3.8660    2.2940    6.4140 c3        1 MOL     -0.121580
     91 H36        -1.1320    4.1390    3.2250 hn        1 MOL      0.257714
     92 H37        -3.2110    1.9730    3.7670 h1        1 MOL      0.066502
     93 H38        -0.5960    2.3270    5.2310 hc        1 MOL      0.007985
     94 H39        -2.2440    3.7750    6.4540 hc        1 MOL      0.007765
     95 H40        -1.9380    2.3200    7.3270 hc        1 MOL      0.007765
     96 H41        -1.1500    0.2780    6.3750 hc        1 MOL      0.014437
     97 H42        -2.5130    0.0130    5.2580 hc        1 MOL      0.014437
     98 H43        -0.8590    0.0690    4.6390 hc        1 MOL      0.014437
     99 H44        -4.4110    2.7200    5.5750 hc        1 MOL      0.024598
    100 H45        -3.9490    1.2130    6.5080 hc        1 MOL      0.024598
    101 H46        -4.2820    2.7700    7.2950 hc        1 MOL      0.024598
    102 N10        -1.9990    0.4330    2.1650 n         1 MOL     -0.814849
    103 C32        -1.5230   -0.4070    1.0340 c3        1 MOL      0.302776
    104 C33        -2.5980   -1.0320    0.2030 c         1 MOL      0.391318
    105 O16        -2.2810   -1.8490   -0.6430 o         1 MOL     -0.451773
    106 C34        -0.5560   -1.4530    1.5740 c3        1 MOL     -0.049432
    107 C35         0.4740   -2.1260    0.7010 c         1 MOL      0.632103
    108 O17         0.7880   -1.6020   -0.3880 o         1 MOL     -0.725326
    109 O18         1.0660   -3.1550    1.1100 o         1 MOL     -0.725326
    110 H47        -2.8270    0.0930    2.6350 hn        1 MOL      0.352119
    111 H48        -0.8920    0.2390    0.4290 h1        1 MOL      0.077862
    112 H49        -1.1630   -2.2810    1.9590 hc        1 MOL      0.015916
    113 H50        -0.0040   -1.0580    2.4310 hc        1 MOL      0.015916
    114 N11        -3.8540   -0.6210    0.2960 n         1 MOL     -0.513735
    115 C36        -4.9360   -1.0690   -0.6650 c3        1 MOL      0.360430
    116 C37        -5.4180   -2.4390   -0.3070 c         1 MOL      0.384871
    117 O19        -5.3970   -2.7620    0.8850 o         1 MOL     -0.633229
    118 C38        -6.0350    0.0040   -0.6700 c3        1 MOL     -0.242934
    119 C39        -7.1970   -0.2280   -1.6420 ca        1 MOL      0.055559
    120 C40        -8.2480   -1.1390   -1.3590 ca        1 MOL     -0.121308
    121 C41        -7.1020    0.2120   -2.9610 ca        1 MOL     -0.121308
    122 C42        -9.1950   -1.5870   -2.3210 ca        1 MOL     -0.164377
    123 C43        -8.0360   -0.1480   -3.9050 ca        1 MOL     -0.164377
    124 C44        -9.0230   -1.1230   -3.6500 ca        1 MOL     -0.052900
    125 H51        -4.1380    0.0460    0.9960 hn        1 MOL      0.264814
    126 H52        -4.5190   -1.1430   -1.6710 h1        1 MOL     -0.022518
    127 H53        -5.6820    1.0250   -0.8060 hc        1 MOL      0.084853
    128 H54        -6.5020   -0.0310    0.3100 hc        1 MOL      0.084853
    129 H55        -8.2210   -1.6490   -0.4060 ha        1 MOL      0.105057
    130 H56        -6.2910    0.8340   -3.3020 ha        1 MOL      0.105057
    131 H57        -9.8000   -2.4540   -2.0950 ha        1 MOL      0.123456
    132 H58        -8.0190    0.3030   -4.8830 ha        1 MOL      0.123456
    133 H59        -9.6960   -1.4980   -4.4030 ha        1 MOL      0.090171
    134 N12        -5.6070   -3.3120   -1.2820 n         1 MOL      0.130952
    135 C45        -6.1120   -4.6230   -0.9530 c3        1 MOL      0.023474
    136 C46        -5.1100   -5.5850   -0.1630 c         1 MOL      0.272867
    137 O20        -5.5440   -6.6360    0.2990 o         1 MOL     -0.506232
    138 C47        -6.6230   -5.2120   -2.3100 c3        1 MOL     -0.226269
    139 C48        -5.7590   -4.5310   -3.3670 c3        1 MOL     -0.051869
    140 C49        -5.4030   -3.1690   -2.6750 c3        1 MOL     -0.119370
    141 H60        -7.0560   -4.3600   -0.4700 h1        1 MOL      0.046610
    142 H61        -6.3490   -6.2580   -2.4020 hc        1 MOL      0.089504
    143 H62        -7.6440   -4.8930   -2.5120 hc        1 MOL      0.089504
    144 H63        -4.8280   -5.0920   -3.4650 hc        1 MOL      0.050635
    145 H64        -6.2680   -4.2920   -4.2950 hc        1 MOL      0.050635
    146 H65        -4.3490   -3.0570   -2.9040 h1        1 MOL      0.054042
    147 H66        -5.9790   -2.3380   -3.1010 h1        1 MOL      0.054042
    148 N13        -3.8700   -5.1830   -0.0700 n         1 MOL     -0.023200
    149 C50        -2.8490   -6.0180    0.6200 c3        1 MOL     -0.102367
    150 C51        -3.0840   -5.8970    2.1530 c         1 MOL      0.534688
    151 O21        -2.9750   -6.9090    2.8470 o         1 MOL     -0.553781
    152 C52        -1.4740   -5.5810    0.2860 c3        1 MOL      0.180127
    153 C53        -1.0770   -5.8050   -1.2040 c3        1 MOL     -0.196923
    154 C54         0.2450   -5.2710   -1.4360 c         1 MOL      0.803896
    155 O22         0.3510   -4.2790   -2.2390 o         1 MOL     -0.766442
    156 O23         1.3150   -5.8360   -1.0160 o         1 MOL     -0.766442
    157 H67        -3.6060   -4.2520   -0.3560 hn        1 MOL      0.101585
    158 H68        -2.9510   -7.0760    0.3730 h1        1 MOL      0.094324
    159 H69        -0.6920   -6.0700    0.8540 hc        1 MOL     -0.041181
    160 H70        -1.4450   -4.5150    0.5250 hc        1 MOL     -0.041181
    161 H71        -1.7640   -5.2780   -1.8640 hc        1 MOL      0.021244
    162 H72        -1.2480   -6.8300   -1.5270 hc        1 MOL      0.021244
    163 N14        -3.5190   -4.7440    2.6410 n         1 MOL     -0.319695
    164 C55        -3.5650   -4.4550    4.0930 c3        1 MOL     -0.364605
    165 H73        -4.0380   -3.4860    4.2550 h1        1 MOL      0.133916
    166 H74        -4.1410   -5.2280    4.6010 h1        1 MOL      0.133916
    167 H75        -2.5510   -4.4350    4.4930 h1        1 MOL      0.133916
    168 H76        -3.5300   -3.9380    2.0380 hn        1 MOL      0.364440
    169 Ca1         2.5830   -3.4190   -1.0680 Ca        1 MOL      1.772445
    170 O24         3.3910   -4.8880   -3.2380 oh        1 MOL     -0.805587
    171 H77         4.3420   -4.9450   -3.3700 ho        1 MOL      0.394852
    172 H78         3.0560   -4.6220   -4.1000 ho        1 MOL      0.394852
    173 O25         3.5780   -1.1970    0.2380 oh        1 MOL     -0.805587
    174 H79         4.3320   -1.3000    0.8170 ho        1 MOL      0.394852
    175 H80         3.5960   -0.2730   -0.0180 ho        1 MOL      0.394852
    176 O26         3.8240   -4.6820    0.7790 oh        1 MOL     -0.805587
    177 H81         4.6530   -5.1690    0.8290 ho        1 MOL      0.394852
    178 H82         3.5440   -4.6110    1.6910 ho        1 MOL      0.394852
    179 O27         5.1810   -3.1920   -1.5750 oh        1 MOL     -0.805587
    180 H83         5.9910   -2.7200   -1.3630 ho        1 MOL      0.394852
    181 H84         5.0780   -3.0770   -2.5240 ho        1 MOL      0.394852
@<TRIPOS>BOND
     1    1    2 1   
     2    1    4 1   
     3    1    5 1   
     4    1    6 1   
     5    2    3 2   
     6    2    7 1   
     7    7    8 1   
     8    7   15 1   
     9    8    9 1   
    10    8   11 1   
    11    8   16 1   
    12    9   10 2   
    13    9   19 1   
    14   11   12 1   
    15   11   17 1   
    16   11   18 1   
    17   12   13 1   
    18   12   14 1   
    19   19   20 1   
    20   19   24 1   
    21   20   21 1   
    22   20   23 1   
    23   20   25 1   
    24   21   22 2   
    25   21   29 1   
    26   23   26 1   
    27   23   27 1   
    28   23   28 1   
    29   29   30 1   
    30   29   37 1   
    31   30   31 1   
    32   30   33 1   
    33   30   38 1   
    34   31   32 2   
    35   31   41 1   
    36   33   34 1   
    37   33   39 1   
    38   33   40 1   
    39   34   35 1   
    40   34   36 1   
    41   41   42 1   
    42   41   45 1   
    43   42   43 1   
    44   42   46 1   
    45   42   47 1   
    46   43   44 2   
    47   43   48 1   
    48   48   49 1   
    49   48   56 1   
    50   49   50 1   
    51   49   52 1   
    52   49   57 1   
    53   50   51 2   
    54   50   62 1   
    55   52   53 1   
    56   52   58 1   
    57   52   59 1   
    58   53   54 1   
    59   53   55 2   
    60   54   60 1   
    61   54   61 1   
    62   62   63 1   
    63   62   66 1   
    64   63   64 1   
    65   63   67 1   
    66   63   68 1   
    67   64   65 2   
    68   64   69 1   
    69   69   70 1   
    70   69   76 1   
    71   70   71 1   
    72   70   73 1   
    73   70   77 1   
    74   71   72 2   
    75   71   83 1   
    76   73   74 1   
    77   73   75 1   
    78   73   78 1   
    79   74   80 1   
    80   74   81 1   
    81   74   82 1   
    82   75   79 1   
    83   83   84 1   
    84   83   91 1   
    85   84   85 1   
    86   84   87 1   
    87   84   92 1   
    88   85   86 2   
    89   85  102 1   
    90   87   88 1   
    91   87   89 1   
    92   87   93 1   
    93   88   90 1   
    94   88   94 1   
    95   88   95 1   
    96   89   96 1   
    97   89   97 1   
    98   89   98 1   
    99   90   99 1   
   100   90  100 1   
   101   90  101 1   
   102  102  103 1   
   103  102  110 1   
   104  103  104 1   
   105  103  106 1   
   106  103  111 1   
   107  104  105 2   
   108  104  114 1   
   109  106  107 1   
   110  106  112 1   
   111  106  113 1   
   112  107  108 1   
   113  107  109 1   
   114  114  115 1   
   115  114  125 1   
   116  115  116 1   
   117  115  118 1   
   118  115  126 1   
   119  116  117 2   
   120  116  134 1   
   121  118  119 1   
   122  118  127 1   
   123  118  128 1   
   124  119  120 ar  
   125  119  121 ar  
   126  120  122 ar  
   127  120  129 1   
   128  121  123 ar  
   129  121  130 1   
   130  122  124 ar  
   131  122  131 1   
   132  123  124 ar  
   133  123  132 1   
   134  124  133 1   
   135  134  135 1   
   136  134  140 1   
   137  135  136 1   
   138  135  138 1   
   139  135  141 1   
   140  136  137 2   
   141  136  148 1   
   142  138  139 1   
   143  138  142 1   
   144  138  143 1   
   145  139  140 1   
   146  139  144 1   
   147  139  145 1   
   148  140  146 1   
   149  140  147 1   
   150  148  149 1   
   151  148  157 1   
   152  149  150 1   
   153  149  152 1   
   154  149  158 1   
   155  150  151 2   
   156  150  163 1   
   157  152  153 1   
   158  152  159 1   
   159  152  160 1   
   160  153  154 1   
   161  153  161 1   
   162  153  162 1   
   163  154  155 1   
   164  154  156 1   
   165  163  164 1   
   166  163  168 1   
   167  164  165 1   
   168  164  166 1   
   169  164  167 1   
   170  170  171 1   
   171  170  172 1   
   172  173  174 1   
   173  173  175 1   
   174  176  177 1   
   175  176  178 1   
   176  179  180 1   
   177  179  181 1   
@<TRIPOS>SUBSTRUCTURE
     1 MOL         1 TEMP              0 ****  ****    0 ROOT
