@<TRIPOS>MOLECULE
MOL
  195   189     1     0     0
SMALL
resp


@<TRIPOS>ATOM
      1 C1        -11.8810   -5.3010   -3.2640 c3        1 MOL     -0.135873
      2 C2        -11.8490   -3.8370   -2.6750 c         1 MOL      0.521986
      3 O1        -12.5850   -3.0120   -3.1630 o         1 MOL     -0.545169
      4 H1        -12.2950   -5.2780   -4.2720 hc        1 MOL      0.035252
      5 H2        -10.8690   -5.7030   -3.2950 hc        1 MOL      0.035252
      6 H3        -12.5040   -5.9340   -2.6310 hc        1 MOL      0.035252
      7 N1        -11.0440   -3.5980   -1.6000 n         1 MOL     -0.005568
      8 C3        -10.6660   -2.3330   -0.9780 c3        1 MOL     -0.419615
      9 C4         -9.3240   -1.8520   -1.3910 c         1 MOL      0.643367
     10 O2         -8.5060   -2.5220   -2.0440 o         1 MOL     -0.639818
     11 C5        -10.8270   -2.4030    0.5610 c3        1 MOL     -0.185732
     12 C6        -10.2560   -3.7060    1.1280 c         1 MOL      0.612375
     13 O3         -9.1480   -4.1570    0.7380 o         1 MOL     -0.678719
     14 O4        -10.9530   -4.4670    1.8800 o         1 MOL     -0.678719
     15 H4        -10.5600   -4.3880   -1.2120 hn        1 MOL      0.079924
     16 H5        -11.4510   -1.6240   -1.2430 h1        1 MOL      0.150667
     17 H6        -11.9020   -2.4570    0.7550 hc        1 MOL      0.098095
     18 H7        -10.3330   -1.5200    0.9560 hc        1 MOL      0.098095
     19 N2         -9.0150   -0.6120   -1.0460 n         1 MOL     -0.355605
     20 C7         -7.7230    0.1160   -1.2350 c3        1 MOL      0.032224
     21 C8         -6.9040    0.0430    0.0230 c         1 MOL      0.591398
     22 O5         -7.4230    0.1950    1.1110 o         1 MOL     -0.559560
     23 C9         -8.0260    1.5250   -1.8100 c3        1 MOL     -0.407717
     24 C10        -8.6620    2.5370   -0.9070 c3        1 MOL      0.163466
     25 C11        -8.9060    3.8580   -1.6820 c3        1 MOL     -0.029416
     26 C12        -9.6150    5.0520   -1.0010 c3        1 MOL      0.020033
     27 N3         -8.9660    5.4860    0.2330 n4        1 MOL     -0.301664
     28 H8         -9.7150   -0.1850   -0.4550 hn        1 MOL      0.296564
     29 H9         -7.1760   -0.4730   -1.9800 h1        1 MOL      0.138213
     30 H10        -8.6850    1.4300   -2.6750 hc        1 MOL      0.125205
     31 H11        -7.0610    1.9130   -2.1310 hc        1 MOL      0.125205
     32 H12        -8.0060    2.6770   -0.0480 hc        1 MOL     -0.032699
     33 H13        -9.5950    2.1090   -0.5370 hc        1 MOL     -0.032699
     34 H14        -9.6230    3.5970   -2.4600 hc        1 MOL      0.051837
     35 H15        -7.9980    4.1440   -2.2110 hc        1 MOL      0.051837
     36 H16       -10.6350    4.7960   -0.7130 hx        1 MOL      0.080945
     37 H17        -9.8370    5.8340   -1.7260 hx        1 MOL      0.080945
     38 H18        -8.9200    4.6580    0.8060 hn        1 MOL      0.283235
     39 H19        -7.9860    5.7020    0.1910 hn        1 MOL      0.283235
     40 H20        -9.4530    6.2470    0.6650 hn        1 MOL      0.283235
     41 N4         -5.6270   -0.1900   -0.1690 n         1 MOL     -0.483305
     42 C13        -4.5670   -0.1340    0.8540 c3        1 MOL      0.243389
     43 C14        -3.1470   -0.0820    0.2390 c         1 MOL      0.478343
     44 O6         -2.8940   -0.4220   -0.8840 o         1 MOL     -0.511105
     45 C15        -4.6630   -1.2330    1.8440 c3        1 MOL     -0.105766
     46 C16        -5.4510   -2.5430    1.4570 c         1 MOL      0.787410
     47 O7         -6.4090   -2.8640    2.1690 o         1 MOL     -0.764605
     48 O8         -5.0530   -3.3040    0.5860 o         1 MOL     -0.764605
     49 H21        -5.2810   -0.3230   -1.1100 hn        1 MOL      0.251118
     50 H22        -4.6890    0.7420    1.4980 h1        1 MOL      0.059973
     51 H23        -5.0590   -0.8020    2.7640 hc        1 MOL      0.005896
     52 H24        -3.6680   -1.5540    2.1360 hc        1 MOL      0.005896
     53 N5         -2.1010    0.4300    0.9410 n         1 MOL     -0.386085
     54 C17        -2.0270    0.9420    2.3060 c3        1 MOL     -0.217429
     55 C18        -2.3330    2.3940    2.4740 c         1 MOL      0.663470
     56 O9         -2.8260    2.9900    1.5360 o         1 MOL     -0.591968
     57 H25        -1.2510    0.4460    0.3980 hn        1 MOL      0.338830
     58 H26        -1.1020    0.6320    2.8020 h1        1 MOL      0.109554
     59 H27        -2.8610    0.5470    2.8820 h1        1 MOL      0.109554
     60 N6         -1.9780    3.0130    3.6250 n         1 MOL     -0.419747
     61 C19        -2.0830    4.4590    3.8230 c3        1 MOL     -0.036695
     62 C20        -1.4260    5.2720    2.6890 c         1 MOL      0.640441
     63 O10        -0.1940    5.1420    2.4430 o         1 MOL     -0.548830
     64 C21        -1.3530    4.8130    5.0830 c3        1 MOL     -0.228173
     65 C22        -1.3020    6.2070    5.6640 c         1 MOL      0.717528
     66 O11        -0.3110    6.4960    6.3950 o         1 MOL     -0.678270
     67 O12        -2.1900    7.0170    5.3500 o         1 MOL     -0.678270
     68 H28        -1.5500    2.4750    4.3650 hn        1 MOL      0.271641
     69 H29        -3.1320    4.7870    3.8630 h1        1 MOL      0.031527
     70 H30        -0.3210    4.4740    5.0210 hc        1 MOL      0.067591
     71 H31        -1.7070    4.1690    5.8840 hc        1 MOL      0.067591
     72 N7         -2.0960    6.0860    1.8620 n         1 MOL     -0.424073
     73 C23        -1.4690    6.8680    0.7270 c3        1 MOL     -0.184208
     74 C24        -0.9560    6.1520   -0.5520 c         1 MOL      0.539227
     75 O13        -0.5590    6.8130   -1.4660 o         1 MOL     -0.565184
     76 H32        -3.0980    5.9730    1.9130 hn        1 MOL      0.272881
     77 H33        -0.5880    7.3070    1.1990 h1        1 MOL      0.132861
     78 H34        -2.2000    7.6110    0.4280 h1        1 MOL      0.132861
     79 N8         -1.0880    4.8160   -0.6370 n         1 MOL     -0.113892
     80 C25        -0.6990    4.0570   -1.8470 c3        1 MOL     -0.034259
     81 C26        -0.1060    2.7240   -1.4370 c         1 MOL      0.289670
     82 O14        -0.0060    2.4460   -0.2760 o         1 MOL     -0.383520
     83 C27        -1.9530    3.7980   -2.7640 c3        1 MOL      0.251625
     84 C28        -3.1160    3.1720   -1.9560 c3        1 MOL     -0.230985
     85 O15        -2.3800    5.0020   -3.3460 oh        1 MOL     -0.624078
     86 H35        -1.4230    4.2900    0.1460 hn        1 MOL      0.121680
     87 H36         0.1300    4.4610   -2.4380 h1        1 MOL      0.070609
     88 H37        -1.6760    3.1500   -3.5910 h1        1 MOL      0.007602
     89 H38        -1.6410    5.4520   -3.7590 ho        1 MOL      0.398728
     90 H39        -2.8400    2.2300   -1.4890 hc        1 MOL      0.063143
     91 H40        -3.6070    3.8910   -1.2920 hc        1 MOL      0.063143
     92 H41        -3.8510    2.9000   -2.7270 hc        1 MOL      0.063143
     93 N9          0.4650    1.8830   -2.3160 n         1 MOL     -0.114062
     94 C29         0.7580    0.4390   -2.1160 c3        1 MOL     -0.067295
     95 C30         2.0760    0.2470   -1.2950 c         1 MOL      0.500126
     96 O16         2.1930   -0.6140   -0.4310 o         1 MOL     -0.505780
     97 C31         0.7440   -0.3900   -3.4450 c3        1 MOL      0.131497
     98 C32        -0.7440   -0.3890   -4.0460 c3        1 MOL     -0.021397
     99 C33         1.3210   -1.8320   -3.3980 c3        1 MOL     -0.425033
    100 C34        -0.8440   -0.8570   -5.4810 c3        1 MOL     -0.124144
    101 H42         0.5760    2.1340   -3.2770 hn        1 MOL      0.155385
    102 H43        -0.0570   -0.0140   -1.5550 h1        1 MOL      0.030006
    103 H44         1.3640    0.2730   -4.0450 hc        1 MOL     -0.013438
    104 H45        -1.1710    0.6150   -3.9760 hc        1 MOL      0.031511
    105 H46        -1.3680   -1.0190   -3.4170 hc        1 MOL      0.031511
    106 H47         1.4510   -2.2730   -4.3990 hc        1 MOL      0.127331
    107 H48         2.2930   -1.8660   -2.9090 hc        1 MOL      0.127331
    108 H49         0.6000   -2.4490   -2.8760 hc        1 MOL      0.127331
    109 H50        -1.8980   -0.8190   -5.7520 hc        1 MOL      0.027863
    110 H51        -0.2650   -0.2180   -6.1460 hc        1 MOL      0.027863
    111 H52        -0.3960   -1.8220   -5.6710 hc        1 MOL      0.027863
    112 N10         2.9840    1.2080   -1.5020 n         1 MOL     -0.295129
    113 C35         4.3430    1.2570   -0.9150 c3        1 MOL     -0.013220
    114 C36         5.3820    1.8200   -1.8680 c         1 MOL      0.532996
    115 O17         5.1330    2.7050   -2.7040 o         1 MOL     -0.517953
    116 C37         4.4660    1.9050    0.4670 c3        1 MOL      0.329291
    117 C38         3.7930    3.3090    0.5460 c3        1 MOL     -0.212723
    118 O18         3.8520    1.0980    1.3820 oh        1 MOL     -0.577971
    119 H53         2.8130    1.8690   -2.2510 hn        1 MOL      0.175238
    120 H54         4.7100    0.2260   -0.8810 h1        1 MOL      0.039009
    121 H55         5.5390    1.9630    0.6200 h1        1 MOL     -0.029545
    122 H56         4.2190    1.2490    2.2520 ho        1 MOL      0.393229
    123 H57         3.9610    3.7930    1.5140 hc        1 MOL      0.057271
    124 H58         4.3710    3.9360   -0.1260 hc        1 MOL      0.057271
    125 H59         2.7710    3.2980    0.1890 hc        1 MOL      0.057271
    126 N11         6.6250    1.3010   -1.6570 n         1 MOL     -0.465039
    127 C39         7.7740    1.8810   -2.4170 c3        1 MOL      0.020319
    128 C40         9.0140    0.9300   -2.4500 c         1 MOL      0.391037
    129 O19         9.1310    0.2820   -3.4910 o         1 MOL     -0.511082
    130 C41         8.1460    3.2380   -1.8620 c3        1 MOL      0.183383
    131 C42         9.4140    3.8980   -2.4000 c3        1 MOL     -0.268408
    132 O20         8.2060    3.1770   -0.4420 oh        1 MOL     -0.605955
    133 H60         6.7710    0.6020   -0.9370 hn        1 MOL      0.327322
    134 H61         7.4880    1.9020   -3.4660 h1        1 MOL      0.109050
    135 H62         7.3840    3.9380   -2.1990 h1        1 MOL      0.064976
    136 H63         8.4200    4.0290   -0.0500 ho        1 MOL      0.419179
    137 H64         9.3190    4.2700   -3.4170 hc        1 MOL      0.074355
    138 H65         9.5150    4.8180   -1.8240 hc        1 MOL      0.074355
    139 H66        10.3120    3.3190   -2.1940 hc        1 MOL      0.074355
    140 N12         9.7040    0.7330   -1.3170 n         1 MOL     -0.188727
    141 C43        10.5060   -0.4350   -1.0200 c3        1 MOL      0.285371
    142 C44         9.9660   -1.2130    0.1930 c         1 MOL      0.310943
    143 O21         9.2760   -0.6070    0.9520 o         1 MOL     -0.464888
    144 C45        11.9480   -0.0330   -0.8690 c3        1 MOL     -0.442746
    145 C46        12.8920   -1.0040   -0.1350 c3        1 MOL      0.360052
    146 C47        14.3550   -0.6780   -0.2540 c3        1 MOL     -0.173798
    147 C48        15.2250   -1.8320    0.2700 c3        1 MOL      0.002537
    148 N13        15.1290   -1.9670    1.7440 n4        1 MOL     -0.548912
    149 H67         9.4340    1.3870   -0.5950 hn        1 MOL      0.179923
    150 H68        10.4580   -1.1760   -1.8240 h1        1 MOL     -0.011248
    151 H69        12.0700    0.9250   -0.3700 hc        1 MOL      0.083405
    152 H70        12.2070    0.0880   -1.9180 hc        1 MOL      0.083405
    153 H71        12.8320   -1.9950   -0.5990 hc        1 MOL     -0.008366
    154 H72        12.6340   -0.9370    0.9180 hc        1 MOL     -0.008366
    155 H73        14.5570    0.1970    0.3570 hc        1 MOL      0.066742
    156 H74        14.6330   -0.5340   -1.3020 hc        1 MOL      0.066742
    157 H75        16.2440   -1.5760   -0.0040 hx        1 MOL      0.116517
    158 H76        15.0180   -2.7710   -0.2510 hx        1 MOL      0.116517
    159 H77        15.8950   -2.5250    2.1190 hn        1 MOL      0.366321
    160 H78        15.2400   -1.0980    2.2400 hn        1 MOL      0.366321
    161 H79        14.3350   -2.4970    2.0760 hn        1 MOL      0.366321
    162 N14        10.0640   -2.4780    0.1200 n         1 MOL     -0.322154
    163 C49         9.7180   -3.3000    1.2910 c3        1 MOL      0.110291
    164 C50         8.1580   -3.3450    1.3810 c         1 MOL      0.253170
    165 O22         7.6880   -2.8910    2.4210 o         1 MOL     -0.499660
    166 C51        10.3350   -4.6710    1.3120 c3        1 MOL      0.176091
    167 C52        11.8510   -4.7800    1.1400 c3        1 MOL     -0.205990
    168 C53        12.4200   -6.1290    1.5500 c         1 MOL      0.789521
    169 O23        11.6610   -7.1160    1.7300 o         1 MOL     -0.724738
    170 O24        13.6500   -6.2450    1.7140 o         1 MOL     -0.724738
    171 H80        10.6080   -2.8330   -0.6550 hn        1 MOL      0.268268
    172 H81        10.1160   -2.7670    2.1570 h1        1 MOL      0.049385
    173 H82         9.7760   -5.1750    0.5230 hc        1 MOL     -0.000392
    174 H83        10.1540   -5.1180    2.2890 hc        1 MOL     -0.000392
    175 H84        12.2700   -3.9590    1.7370 hc        1 MOL     -0.057918
    176 H85        12.1210   -4.5700    0.1080 hc        1 MOL     -0.057918
    177 N15         7.3440   -3.7090    0.4030 n         1 MOL     -0.211990
    178 C54         7.5980   -4.3260   -0.9050 c3        1 MOL     -0.149718
    179 H86         6.7480   -4.1450   -1.5630 h1        1 MOL      0.078575
    180 H87         8.4960   -3.8930   -1.3440 h1        1 MOL      0.078575
    181 H88         7.7370   -5.4000   -0.7800 h1        1 MOL      0.078575
    182 H89         6.3800   -3.6270    0.7140 hn        1 MOL      0.270719
    183 Ca1        -6.8460   -5.3230    1.0560 Ca        1 MOL      1.711311
    184 O25        -7.8450   -4.5310    3.6270 oh        1 MOL     -0.845774
    185 H90        -7.3140   -3.8000    3.2900 ho        1 MOL      0.425208
    186 H91        -8.6650   -4.1250    3.8980 ho        1 MOL      0.425208
    187 O26        -6.6790   -4.5610   -1.4770 oh        1 MOL     -0.845774
    188 H92        -7.3090   -3.8540   -1.5920 ho        1 MOL      0.425208
    189 H93        -6.6670   -5.0190   -2.3160 ho        1 MOL      0.425208
    190 O27        -8.1120   -7.4050    2.2720 oh        1 MOL     -0.845774
    191 H94        -8.5800   -7.9980    1.6870 ho        1 MOL      0.425208
    192 H95        -8.7260   -7.2320    2.9850 ho        1 MOL      0.425208
    193 O28        -5.1280   -5.8720    3.2720 oh        1 MOL     -0.845774
    194 H96        -5.5320   -5.8310    4.1400 ho        1 MOL      0.425208
    195 H97        -4.3990   -6.4820    3.3700 ho        1 MOL      0.425208
@<TRIPOS>BOND
     1    1    2 1   
     2    1    4 1   
     3    1    5 1   
     4    1    6 1   
     5    2    3 2   
     6    2    7 1   
     7    7    8 1   
     8    7   15 1   
     9    8    9 1   
    10    8   11 1   
    11    8   16 1   
    12    9   10 2   
    13    9   19 1   
    14   11   12 1   
    15   11   17 1   
    16   11   18 1   
    17   12   13 1   
    18   12   14 1   
    19   19   20 1   
    20   19   28 1   
    21   20   21 1   
    22   20   23 1   
    23   20   29 1   
    24   21   22 2   
    25   21   41 1   
    26   23   24 1   
    27   23   30 1   
    28   23   31 1   
    29   24   25 1   
    30   24   32 1   
    31   24   33 1   
    32   25   26 1   
    33   25   34 1   
    34   25   35 1   
    35   26   27 1   
    36   26   36 1   
    37   26   37 1   
    38   27   38 1   
    39   27   39 1   
    40   27   40 1   
    41   41   42 1   
    42   41   49 1   
    43   42   43 1   
    44   42   45 1   
    45   42   50 1   
    46   43   44 2   
    47   43   53 1   
    48   45   46 1   
    49   45   51 1   
    50   45   52 1   
    51   46   47 1   
    52   46   48 1   
    53   53   54 1   
    54   53   57 1   
    55   54   55 1   
    56   54   58 1   
    57   54   59 1   
    58   55   56 2   
    59   55   60 1   
    60   60   61 1   
    61   60   68 1   
    62   61   62 1   
    63   61   64 1   
    64   61   69 1   
    65   62   63 2   
    66   62   72 1   
    67   64   65 1   
    68   64   70 1   
    69   64   71 1   
    70   65   66 1   
    71   65   67 1   
    72   72   73 1   
    73   72   76 1   
    74   73   74 1   
    75   73   77 1   
    76   73   78 1   
    77   74   75 2   
    78   74   79 1   
    79   79   80 1   
    80   79   86 1   
    81   80   81 1   
    82   80   83 1   
    83   80   87 1   
    84   81   82 2   
    85   81   93 1   
    86   83   84 1   
    87   83   85 1   
    88   83   88 1   
    89   84   90 1   
    90   84   91 1   
    91   84   92 1   
    92   85   89 1   
    93   93   94 1   
    94   93  101 1   
    95   94   95 1   
    96   94   97 1   
    97   94  102 1   
    98   95   96 2   
    99   95  112 1   
   100   97   98 1   
   101   97   99 1   
   102   97  103 1   
   103   98  100 1   
   104   98  104 1   
   105   98  105 1   
   106   99  106 1   
   107   99  107 1   
   108   99  108 1   
   109  100  109 1   
   110  100  110 1   
   111  100  111 1   
   112  112  113 1   
   113  112  119 1   
   114  113  114 1   
   115  113  116 1   
   116  113  120 1   
   117  114  115 2   
   118  114  126 1   
   119  116  117 1   
   120  116  118 1   
   121  116  121 1   
   122  117  123 1   
   123  117  124 1   
   124  117  125 1   
   125  118  122 1   
   126  126  127 1   
   127  126  133 1   
   128  127  128 1   
   129  127  130 1   
   130  127  134 1   
   131  128  129 2   
   132  128  140 1   
   133  130  131 1   
   134  130  132 1   
   135  130  135 1   
   136  131  137 1   
   137  131  138 1   
   138  131  139 1   
   139  132  136 1   
   140  140  141 1   
   141  140  149 1   
   142  141  142 1   
   143  141  144 1   
   144  141  150 1   
   145  142  143 2   
   146  142  162 1   
   147  144  145 1   
   148  144  151 1   
   149  144  152 1   
   150  145  146 1   
   151  145  153 1   
   152  145  154 1   
   153  146  147 1   
   154  146  155 1   
   155  146  156 1   
   156  147  148 1   
   157  147  157 1   
   158  147  158 1   
   159  148  159 1   
   160  148  160 1   
   161  148  161 1   
   162  162  163 1   
   163  162  171 1   
   164  163  164 1   
   165  163  166 1   
   166  163  172 1   
   167  164  165 2   
   168  164  177 1   
   169  166  167 1   
   170  166  173 1   
   171  166  174 1   
   172  167  168 1   
   173  167  175 1   
   174  167  176 1   
   175  168  169 1   
   176  168  170 1   
   177  177  178 1   
   178  177  182 1   
   179  178  179 1   
   180  178  180 1   
   181  178  181 1   
   182  184  185 1   
   183  184  186 1   
   184  187  188 1   
   185  187  189 1   
   186  190  191 1   
   187  190  192 1   
   188  193  194 1   
   189  193  195 1   
@<TRIPOS>SUBSTRUCTURE
     1 MOL         1 TEMP              0 ****  ****    0 ROOT
