@<TRIPOS>MOLECULE
MOL
  188   182     1     0     0
SMALL
resp


@<TRIPOS>ATOM
      1 C1         -6.7390   -0.6230    3.0340 c3        1 MOL     -0.189157
      2 C2         -7.2120   -1.3280    1.7750 c         1 MOL      0.692261
      3 O1         -6.4850   -1.4090    0.7920 o         1 MOL     -0.506886
      4 H1         -5.6550   -0.5130    3.0030 hc        1 MOL      0.043523
      5 H2         -7.2020    0.3620    3.0950 hc        1 MOL      0.043523
      6 H3         -7.0190   -1.2110    3.9080 hc        1 MOL      0.043523
      7 N1         -8.4750   -1.7870    1.6750 n         1 MOL     -0.557610
      8 C3         -9.1530   -2.1220    0.4080 c3        1 MOL     -0.042367
      9 C4         -9.0920   -1.0580   -0.6580 c         1 MOL      0.587114
     10 O2         -8.9880   -1.4170   -1.8500 o         1 MOL     -0.525557
     11 C5         -8.8750   -3.5860   -0.1350 c3        1 MOL     -0.181390
     12 C6         -8.9670   -4.6160    0.8820 c         1 MOL      0.738526
     13 O3        -10.0970   -5.1930    0.9950 o         1 MOL     -0.647401
     14 O4         -7.9930   -5.1930    1.3920 o         1 MOL     -0.647401
     15 H4         -9.0830   -1.6300    2.4740 hn        1 MOL      0.318440
     16 H5        -10.2260   -2.2090    0.5920 h1        1 MOL      0.077545
     17 H6         -7.8480   -3.5740   -0.4920 hc        1 MOL      0.083860
     18 H7         -9.5990   -3.8220   -0.9190 hc        1 MOL      0.083860
     19 N2         -8.9650    0.2030   -0.2960 n         1 MOL     -0.489470
     20 C7         -8.8350    1.2700   -1.3210 c3        1 MOL      0.153234
     21 C8         -7.4110    1.7860   -1.4940 c         1 MOL      0.572288
     22 O5         -7.2310    2.8290   -2.1310 o         1 MOL     -0.595008
     23 C9         -9.8720    2.3530   -1.0470 c3        1 MOL     -0.085769
     24 C10        -9.7440    3.1190    0.3190 c3        1 MOL      0.167639
     25 C11       -10.7260    4.3390    0.4330 c3        1 MOL     -0.227002
     26 C12       -10.5250    5.3100    1.6250 c3        1 MOL      0.088176
     27 N3         -9.1900    5.9530    1.6540 n4        1 MOL     -0.262618
     28 H8         -8.7050    0.3800    0.6650 hn        1 MOL      0.225257
     29 H9         -9.1060    0.8150   -2.2680 h1        1 MOL      0.099706
     30 H10       -10.8380    1.8450   -1.0180 hc        1 MOL      0.023093
     31 H11        -9.8620    3.1070   -1.8320 hc        1 MOL      0.023093
     32 H12        -8.7080    3.4320    0.3990 hc        1 MOL     -0.043899
     33 H13        -9.9290    2.3420    1.0670 hc        1 MOL     -0.043899
     34 H14       -11.6690    3.8120    0.5810 hc        1 MOL      0.100927
     35 H15       -10.7420    4.9880   -0.4390 hc        1 MOL      0.100927
     36 H16       -10.6870    4.8550    2.6100 hx        1 MOL      0.064083
     37 H17       -11.2900    6.0690    1.5970 hx        1 MOL      0.064083
     38 H18        -8.9440    6.5030    2.4610 hn        1 MOL      0.226057
     39 H19        -8.4320    5.2910    1.6300 hn        1 MOL      0.226057
     40 H20        -9.1090    6.5240    0.8180 hn        1 MOL      0.226057
     41 N4         -6.4490    1.0660   -0.9960 n         1 MOL     -0.495205
     42 C13        -4.9880    1.2260   -1.1730 c3        1 MOL     -0.005041
     43 C14        -4.5290    0.7460   -2.6430 c         1 MOL      0.682305
     44 O6         -4.9660   -0.2340   -3.1640 o         1 MOL     -0.493579
     45 C15        -4.1520    0.4940   -0.0320 c3        1 MOL     -0.087032
     46 C16        -2.7000    0.9630   -0.1520 c         1 MOL      0.431288
     47 O7         -2.2860    1.9760    0.4640 o         1 MOL     -0.612115
     48 O8         -1.9010    0.4260   -0.9570 o         1 MOL     -0.612115
     49 H21        -6.6820    0.3140   -0.3650 hn        1 MOL      0.277991
     50 H22        -4.8200    2.3040   -1.2030 h1        1 MOL      0.063449
     51 H23        -4.1990   -0.5830   -0.1650 hc        1 MOL      0.057924
     52 H24        -4.5170    0.6520    0.9840 hc        1 MOL      0.057924
     53 N5         -3.6200    1.5580   -3.2010 n         1 MOL     -0.458478
     54 C17        -3.0690    1.4580   -4.5530 c3        1 MOL     -0.147094
     55 C18        -1.9140    0.3890   -4.6740 c         1 MOL      0.575225
     56 O9         -1.5270    0.1230   -5.8180 o         1 MOL     -0.574623
     57 H25        -3.3810    2.4420   -2.7720 hn        1 MOL      0.280572
     58 H26        -2.6320    2.4130   -4.8340 h1        1 MOL      0.101298
     59 H27        -3.9110    1.2530   -5.2200 h1        1 MOL      0.101298
     60 N6         -1.4920   -0.2020   -3.5860 n         1 MOL     -0.311429
     61 C19        -0.7340   -1.4460   -3.7140 c3        1 MOL     -0.059025
     62 C20        -1.0940   -2.4460   -2.6010 c         1 MOL      0.468605
     63 O10        -0.4000   -3.4780   -2.4760 o         1 MOL     -0.544428
     64 C21         0.8260   -1.2390   -3.8840 c3        1 MOL     -0.449473
     65 C22         1.4660   -0.8290   -2.6350 c         1 MOL      0.603874
     66 N7          2.7750   -0.7770   -2.5490 n         1 MOL     -0.846414
     67 O11         0.7980   -0.5760   -1.6220 o         1 MOL     -0.446337
     68 H28        -1.6470    0.2500   -2.7050 hn        1 MOL      0.267249
     69 H29        -1.0140   -1.9320   -4.6450 h1        1 MOL      0.165814
     70 H30         0.9820   -0.3030   -4.4150 hc        1 MOL      0.184524
     71 H31         1.2430   -2.1300   -4.3390 hc        1 MOL      0.184524
     72 H32         3.3870   -1.0500   -3.3090 hn        1 MOL      0.386710
     73 H33         3.1440   -0.3750   -1.7050 hn        1 MOL      0.386710
     74 N8         -2.1840   -2.2560   -1.8550 n         1 MOL     -0.199896
     75 C23        -2.7510   -3.1230   -0.7720 c3        1 MOL     -0.097423
     76 C24        -2.0870   -2.9380    0.6060 c         1 MOL      0.526769
     77 O12        -2.3630   -3.7880    1.4140 o         1 MOL     -0.529419
     78 H34        -2.6360   -1.3660   -1.9880 hn        1 MOL      0.090426
     79 H35        -2.6360   -4.1280   -1.1830 h1        1 MOL      0.120400
     80 H36        -3.8190   -2.9730   -0.5900 h1        1 MOL      0.120400
     81 N9         -1.2270   -1.9790    0.7890 n         1 MOL     -0.191385
     82 C25        -0.6930   -1.6330    2.1220 c3        1 MOL     -0.237593
     83 C26         0.6280   -0.8630    1.9700 c         1 MOL      0.669961
     84 O13         0.6390    0.1650    1.3060 o         1 MOL     -0.744847
     85 C27        -1.7340   -0.7400    2.9030 c3        1 MOL     -0.180551
     86 C28        -1.1150    0.0720    4.0870 ca        1 MOL     -0.009504
     87 C29        -0.8120   -0.6510    5.2240 ca        1 MOL     -0.133229
     88 C30        -0.8740    1.4460    4.0130 ca        1 MOL     -0.133229
     89 C31        -0.2670    0.0490    6.3030 ca        1 MOL     -0.245776
     90 C32        -0.1840    2.1360    5.0260 ca        1 MOL     -0.245776
     91 C33         0.0780    1.4480    6.2120 ca        1 MOL      0.310783
     92 O14         0.6660    2.1490    7.2380 oh        1 MOL     -0.468947
     93 H37        -1.1240   -1.2250    0.1220 hn        1 MOL      0.088690
     94 H38        -0.5380   -2.5560    2.6970 h1        1 MOL      0.132584
     95 H39        -2.4940   -1.3650    3.3560 hc        1 MOL      0.154090
     96 H40        -2.2060   -0.0320    2.2270 hc        1 MOL      0.154090
     97 H41        -0.9660   -1.7160    5.1530 ha        1 MOL      0.132403
     98 H42        -1.1500    1.9760    3.1160 ha        1 MOL      0.132403
     99 H43         0.0570   -0.4660    7.1970 ha        1 MOL      0.146755
    100 H44         0.0830    3.1740    4.8890 ha        1 MOL      0.146755
    101 H45         0.8160    3.0480    6.9530 ho        1 MOL      0.349352
    102 N10         1.7680   -1.3700    2.3720 n         1 MOL     -0.435751
    103 C34         3.0910   -0.9090    1.9410 c3        1 MOL      0.266684
    104 C35         3.4010   -1.5520    0.5740 c         1 MOL      0.044900
    105 O15         4.0390   -0.8680   -0.2640 o         1 MOL     -0.437427
    106 C36         4.2500   -1.3070    3.0090 c3        1 MOL     -0.088769
    107 C37         4.1570   -0.8370    4.4520 c3        1 MOL      0.234524
    108 C38         5.6840   -1.0360    2.5190 c3        1 MOL     -0.453126
    109 C39         3.9210    0.6580    4.5470 c3        1 MOL     -0.294055
    110 H46         1.7840   -2.3030    2.7710 hn        1 MOL      0.257574
    111 H47         3.0510    0.1900    1.9070 h1        1 MOL      0.130446
    112 H48         4.0740   -2.3840    3.1120 hc        1 MOL      0.009669
    113 H49         5.0420   -1.1730    4.9980 hc        1 MOL     -0.010864
    114 H50         3.3280   -1.3740    4.9170 hc        1 MOL     -0.010864
    115 H51         6.4180   -1.5190    3.1520 hc        1 MOL      0.130782
    116 H52         5.8820   -1.2970    1.4760 hc        1 MOL      0.130782
    117 H53         5.8670    0.0380    2.5610 hc        1 MOL      0.130782
    118 H54         3.6680    0.8590    5.5880 hc        1 MOL      0.065979
    119 H55         4.8340    1.1870    4.2930 hc        1 MOL      0.065979
    120 H56         3.1630    1.0540    3.8620 hc        1 MOL      0.065979
    121 N11         2.9470   -2.8230    0.3920 n         1 MOL     -0.062899
    122 C40         3.1610   -3.6950   -0.8380 c3        1 MOL     -0.313886
    123 C41         4.6440   -3.8280   -1.2110 c         1 MOL      0.755341
    124 O16         4.9540   -3.7750   -2.4210 o         1 MOL     -0.560497
    125 C42         2.5950   -5.1090   -0.5100 c3        1 MOL      0.115326
    126 O17         2.9740   -5.5600    0.7770 oh        1 MOL     -0.654521
    127 H57         2.5670   -3.1960    1.2490 hn        1 MOL      0.261902
    128 H58         2.5730   -3.2740   -1.6560 h1        1 MOL      0.204530
    129 H59         2.8740   -5.7940   -1.3120 h1        1 MOL      0.076718
    130 H60         1.5110   -5.1010   -0.5080 h1        1 MOL      0.076718
    131 H61         2.6780   -6.4650    0.8970 ho        1 MOL      0.445464
    132 N12         5.5840   -3.9730   -0.2000 n         1 MOL     -0.579850
    133 C43         7.1190   -3.9180   -0.3180 c3        1 MOL      0.324911
    134 C44         7.7970   -2.7850   -1.1320 c         1 MOL      0.326886
    135 O18         8.9680   -2.7710   -1.2630 o         1 MOL     -0.498643
    136 C45         7.7530   -5.2030   -0.8620 c3        1 MOL     -0.560862
    137 H62         5.2010   -3.9780    0.7380 hn        1 MOL      0.291133
    138 H63         7.5180   -3.9020    0.6940 h1        1 MOL      0.073767
    139 H64         7.2100   -6.0990   -0.5820 hc        1 MOL      0.159261
    140 H65         7.7410   -5.2100   -1.9570 hc        1 MOL      0.159261
    141 H66         8.6890   -5.2790   -0.3170 hc        1 MOL      0.159261
    142 N13         7.0670   -1.7230   -1.5700 n         1 MOL     -0.218403
    143 C46         7.6340   -0.4360   -2.0500 c3        1 MOL      0.150062
    144 C47         7.8950    0.5750   -0.9420 c         1 MOL      0.549250
    145 O19         7.2060    0.5540    0.0430 o         1 MOL     -0.472334
    146 C48         6.5760    0.0320   -3.0580 c3        1 MOL     -0.273117
    147 H67         6.0640   -1.7660   -1.5260 hn        1 MOL      0.215227
    148 H68         8.4970   -0.6870   -2.6660 h1        1 MOL      0.040200
    149 H69         5.6210    0.2480   -2.5790 hc        1 MOL      0.068235
    150 H70         6.9020    1.0010   -3.4460 hc        1 MOL      0.068235
    151 H71         6.3440   -0.7800   -3.7370 hc        1 MOL      0.068235
    152 N14         8.9310    1.4040   -1.1060 n         1 MOL     -0.596435
    153 C49         9.4240    2.3800   -0.1320 c3        1 MOL      0.002722
    154 C50         9.5690    1.8850    1.3170 c         1 MOL      0.357362
    155 O20         9.3260    2.6490    2.2500 o         1 MOL     -0.505028
    156 C51         8.6220    3.7130   -0.2490 c3        1 MOL      0.181916
    157 C52         8.8860    4.5380   -1.5430 c3        1 MOL     -0.108494
    158 C53         7.9990    5.7440   -1.6270 c         1 MOL      0.606000
    159 O21         8.4010    6.8560   -1.2310 o         1 MOL     -0.653997
    160 O22         6.8420    5.5410   -1.9200 o         1 MOL     -0.653997
    161 H72         9.3330    1.4230   -2.0380 hn        1 MOL      0.326216
    162 H73        10.4320    2.6510   -0.4530 h1        1 MOL      0.077031
    163 H74         9.0170    4.3790    0.5170 hc        1 MOL      0.002813
    164 H75         7.5620    3.5500   -0.0620 hc        1 MOL      0.002813
    165 H76         8.7290    3.8860   -2.3960 hc        1 MOL     -0.013260
    166 H77         9.9300    4.8330   -1.4950 hc        1 MOL     -0.013260
    167 N15        10.0740    0.6980    1.5540 n         1 MOL     -0.130969
    168 C54        10.3220    0.0210    2.8400 c3        1 MOL     -0.311687
    169 H78        11.0360    0.6010    3.4240 h1        1 MOL      0.131257
    170 H79         9.3860   -0.0650    3.3940 h1        1 MOL      0.131257
    171 H80        10.7270   -0.9740    2.6550 h1        1 MOL      0.131257
    172 H81        10.3560    0.2630    0.6920 hn        1 MOL      0.187186
    173 Ca1         0.2010    1.9930   -0.5090 Ca        1 MOL      1.810702
    174 O23         0.6160    2.0730   -3.1130 oh        1 MOL     -0.835099
    175 H82         1.3250    1.7080   -3.6390 ho        1 MOL      0.399535
    176 H83         0.6970    3.0180   -3.2050 ho        1 MOL      0.399535
    177 O24        -0.1610    3.8360    1.3260 oh        1 MOL     -0.835099
    178 H84         0.4930    4.5370    1.3200 ho        1 MOL      0.399535
    179 H85        -0.7820    4.0850    2.0040 ho        1 MOL      0.399535
    180 O25         1.0660    4.4220   -1.1640 oh        1 MOL     -0.835099
    181 H86         1.7830    4.9200   -0.7740 ho        1 MOL      0.399535
    182 H87         0.6280    5.0510   -1.7360 ho        1 MOL      0.399535
    183 O26         2.7890    1.8570   -0.2350 oh        1 MOL     -0.835099
    184 H88         3.1560    1.1400    0.2840 ho        1 MOL      0.399535
    185 H89         3.5500    2.3920   -0.4690 ho        1 MOL      0.399535
    186 O27        -1.6730    3.8350   -1.6320 oh        1 MOL     -0.835099
    187 H90        -1.2680    4.4270   -2.2700 ho        1 MOL      0.399535
    188 H91        -2.3080    4.3760   -1.1820 ho        1 MOL      0.399535
@<TRIPOS>BOND
     1    1    2 1   
     2    1    4 1   
     3    1    5 1   
     4    1    6 1   
     5    2    3 2   
     6    2    7 1   
     7    7    8 1   
     8    7   15 1   
     9    8    9 1   
    10    8   11 1   
    11    8   16 1   
    12    9   10 2   
    13    9   19 1   
    14   11   12 1   
    15   11   17 1   
    16   11   18 1   
    17   12   13 1   
    18   12   14 1   
    19   19   20 1   
    20   19   28 1   
    21   20   21 1   
    22   20   23 1   
    23   20   29 1   
    24   21   22 2   
    25   21   41 1   
    26   23   24 1   
    27   23   30 1   
    28   23   31 1   
    29   24   25 1   
    30   24   32 1   
    31   24   33 1   
    32   25   26 1   
    33   25   34 1   
    34   25   35 1   
    35   26   27 1   
    36   26   36 1   
    37   26   37 1   
    38   27   38 1   
    39   27   39 1   
    40   27   40 1   
    41   41   42 1   
    42   41   49 1   
    43   42   43 1   
    44   42   45 1   
    45   42   50 1   
    46   43   44 2   
    47   43   53 1   
    48   45   46 1   
    49   45   51 1   
    50   45   52 1   
    51   46   47 1   
    52   46   48 1   
    53   53   54 1   
    54   53   57 1   
    55   54   55 1   
    56   54   58 1   
    57   54   59 1   
    58   55   56 2   
    59   55   60 1   
    60   60   61 1   
    61   60   68 1   
    62   61   62 1   
    63   61   64 1   
    64   61   69 1   
    65   62   63 2   
    66   62   74 1   
    67   64   65 1   
    68   64   70 1   
    69   64   71 1   
    70   65   66 1   
    71   65   67 2   
    72   66   72 1   
    73   66   73 1   
    74   74   75 1   
    75   74   78 1   
    76   75   76 1   
    77   75   79 1   
    78   75   80 1   
    79   76   77 2   
    80   76   81 1   
    81   81   82 1   
    82   81   93 1   
    83   82   83 1   
    84   82   85 1   
    85   82   94 1   
    86   83   84 2   
    87   83  102 1   
    88   85   86 1   
    89   85   95 1   
    90   85   96 1   
    91   86   87 ar  
    92   86   88 ar  
    93   87   89 ar  
    94   87   97 1   
    95   88   90 ar  
    96   88   98 1   
    97   89   91 ar  
    98   89   99 1   
    99   90   91 ar  
   100   90  100 1   
   101   91   92 1   
   102   92  101 1   
   103  102  103 1   
   104  102  110 1   
   105  103  104 1   
   106  103  106 1   
   107  103  111 1   
   108  104  105 2   
   109  104  121 1   
   110  106  107 1   
   111  106  108 1   
   112  106  112 1   
   113  107  109 1   
   114  107  113 1   
   115  107  114 1   
   116  108  115 1   
   117  108  116 1   
   118  108  117 1   
   119  109  118 1   
   120  109  119 1   
   121  109  120 1   
   122  121  122 1   
   123  121  127 1   
   124  122  123 1   
   125  122  125 1   
   126  122  128 1   
   127  123  124 2   
   128  123  132 1   
   129  125  126 1   
   130  125  129 1   
   131  125  130 1   
   132  126  131 1   
   133  132  133 1   
   134  132  137 1   
   135  133  134 1   
   136  133  136 1   
   137  133  138 1   
   138  134  135 2   
   139  134  142 1   
   140  136  139 1   
   141  136  140 1   
   142  136  141 1   
   143  142  143 1   
   144  142  147 1   
   145  143  144 1   
   146  143  146 1   
   147  143  148 1   
   148  144  145 2   
   149  144  152 1   
   150  146  149 1   
   151  146  150 1   
   152  146  151 1   
   153  152  153 1   
   154  152  161 1   
   155  153  154 1   
   156  153  156 1   
   157  153  162 1   
   158  154  155 2   
   159  154  167 1   
   160  156  157 1   
   161  156  163 1   
   162  156  164 1   
   163  157  158 1   
   164  157  165 1   
   165  157  166 1   
   166  158  159 1   
   167  158  160 1   
   168  167  168 1   
   169  167  172 1   
   170  168  169 1   
   171  168  170 1   
   172  168  171 1   
   173  174  175 1   
   174  174  176 1   
   175  177  178 1   
   176  177  179 1   
   177  180  181 1   
   178  180  182 1   
   179  183  184 1   
   180  183  185 1   
   181  186  187 1   
   182  186  188 1   
@<TRIPOS>SUBSTRUCTURE
     1 MOL         1 TEMP              0 ****  ****    0 ROOT
