@<TRIPOS>MOLECULE
MOL
  192   187     1     0     0
SMALL
resp


@<TRIPOS>ATOM
      1 C1        -10.3490   -0.9220   -1.7810 c3        1 MOL     -0.357188
      2 C2         -9.0310   -0.4660   -1.2140 c         1 MOL      0.621327
      3 O1         -7.9970   -0.3610   -1.8820 o         1 MOL     -0.625603
      4 H1        -10.2690   -1.9640   -2.0930 hc        1 MOL      0.092884
      5 H2        -11.1230   -0.8300   -1.0200 hc        1 MOL      0.092884
      6 H3        -10.6080   -0.3050   -2.6410 hc        1 MOL      0.092884
      7 N1         -8.9360   -0.5540    0.1020 n         1 MOL     -0.442568
      8 C3         -7.6830   -0.4160    0.9390 c3        1 MOL      0.044549
      9 C4         -6.9870   -1.7520    1.0170 c         1 MOL      0.428035
     10 O2         -6.9190   -2.3840    2.0900 o         1 MOL     -0.454078
     11 C5         -7.9180    0.2020    2.2590 c3        1 MOL     -0.104030
     12 C6         -8.9470   -0.4660    3.2120 c         1 MOL      0.649067
     13 O3         -9.0040    0.0050    4.3480 o         1 MOL     -0.612113
     14 O4         -9.8670   -1.2530    2.8020 o         1 MOL     -0.612113
     15 H4         -9.8020   -0.6670    0.6120 hn        1 MOL      0.245233
     16 H5         -7.0250    0.2730    0.4250 h1        1 MOL      0.070337
     17 H6         -8.2580    1.2040    2.0010 hc        1 MOL      0.054180
     18 H7         -6.9510    0.4620    2.7110 hc        1 MOL      0.054180
     19 N2         -6.3580   -2.2100   -0.0790 n         1 MOL     -0.463175
     20 C7         -5.7210   -3.5490   -0.1670 c3        1 MOL      0.278060
     21 C8         -4.2180   -3.6620    0.3250 c         1 MOL      0.502048
     22 O5         -3.8620   -4.7170    0.8550 o         1 MOL     -0.545378
     23 C9         -5.8920   -4.1110   -1.6010 c3        1 MOL     -0.282401
     24 C10        -7.2940   -4.3980   -2.0020 c3        1 MOL      0.252117
     25 C11        -7.4810   -5.3400   -3.1470 c3        1 MOL     -0.161702
     26 C12        -8.9710   -5.5350   -3.4100 c3        1 MOL      0.103895
     27 N3         -9.2430   -6.2360   -4.6970 n4        1 MOL     -0.224125
     28 H8         -6.4080   -1.5960   -0.8840 hn        1 MOL      0.231941
     29 H9         -6.2010   -4.1570    0.6040 h1        1 MOL      0.038530
     30 H10        -5.2490   -4.9680   -1.7570 hc        1 MOL      0.052338
     31 H11        -5.5690   -3.1960   -2.1140 hc        1 MOL      0.052338
     32 H12        -7.7240   -3.4540   -2.3100 hc        1 MOL     -0.008303
     33 H13        -7.8570   -4.8110   -1.1700 hc        1 MOL     -0.008303
     34 H14        -7.1110   -6.3170   -2.8260 hc        1 MOL      0.057230
     35 H15        -6.9880   -4.8570   -3.9950 hc        1 MOL      0.057230
     36 H16        -9.5050   -4.5920   -3.3990 hx        1 MOL      0.053720
     37 H17        -9.3230   -6.0830   -2.5370 hx        1 MOL      0.053720
     38 H18       -10.2440   -6.1960   -4.8270 hn        1 MOL      0.235871
     39 H19        -8.7570   -5.8530   -5.4990 hn        1 MOL      0.235871
     40 H20        -9.1030   -7.2380   -4.6600 hn        1 MOL      0.235871
     41 N4         -3.2920   -2.6750    0.1210 n         1 MOL     -0.428234
     42 C13        -3.4620   -1.4880   -0.6670 c3        1 MOL      0.026851
     43 C14        -3.7790   -0.2390    0.2050 c         1 MOL      0.345385
     44 O6         -3.8260   -0.3100    1.4130 o         1 MOL     -0.393041
     45 C15        -2.1700   -1.3030   -1.4970 c3        1 MOL     -0.296226
     46 C16        -0.8460   -1.4520   -0.7200 c         1 MOL      0.566201
     47 O7         -0.6300   -0.6610    0.2660 o         1 MOL     -0.613773
     48 O8         -0.1650   -2.4860   -0.9210 o         1 MOL     -0.613773
     49 H21        -2.3920   -2.7210    0.5860 hn        1 MOL      0.378765
     50 H22        -4.2410   -1.7010   -1.4020 h1        1 MOL      0.086542
     51 H23        -2.3000   -0.3640   -2.0210 hc        1 MOL      0.074937
     52 H24        -2.1420   -1.9950   -2.3380 hc        1 MOL      0.074937
     53 N5         -4.0010    0.8780   -0.5290 n         1 MOL     -0.283387
     54 C17        -4.2010    2.2280   -0.0800 c3        1 MOL     -0.231468
     55 C18        -3.0040    2.9370    0.5690 c         1 MOL      0.517544
     56 O9         -1.8700    2.3840    0.4730 o         1 MOL     -0.418403
     57 H25        -4.0880    0.7490   -1.5260 hn        1 MOL      0.283697
     58 H26        -4.8790    2.0960    0.7660 h1        1 MOL      0.117199
     59 H27        -4.6860    2.8080   -0.8550 h1        1 MOL      0.117199
     60 N6         -3.1790    4.1040    1.2050 n         1 MOL     -0.490328
     61 C19        -2.1360    5.0540    1.6300 c3        1 MOL      0.302831
     62 C20        -2.5560    6.5810    1.3450 c         1 MOL      0.299173
     63 O10        -3.7690    6.8860    1.3120 o         1 MOL     -0.504500
     64 C21        -1.9140    4.8950    3.0780 c3        1 MOL     -0.049840
     65 C22        -1.4760    3.4640    3.4810 c         1 MOL      0.583198
     66 O11        -0.4490    2.9900    2.9210 o         1 MOL     -0.659479
     67 O12        -2.1920    2.8250    4.3480 o         1 MOL     -0.659479
     68 H28        -4.1230    4.3950    1.4020 hn        1 MOL      0.299828
     69 H29        -1.1750    4.8310    1.1880 h1        1 MOL     -0.019583
     70 H30        -2.7980    5.1910    3.6460 hc        1 MOL      0.008664
     71 H31        -1.1230    5.5850    3.3740 hc        1 MOL      0.008664
     72 N7         -1.6430    7.5510    1.1330 n         1 MOL     -0.274794
     73 C23        -0.1670    7.4350    1.2400 c3        1 MOL     -0.240938
     74 C24         0.4270    6.7660    0.0220 c         1 MOL      0.663384
     75 O13        -0.1010    6.8370   -1.1420 o         1 MOL     -0.547391
     76 H32        -2.1420    8.4100    0.9800 hn        1 MOL      0.284345
     77 H33        -0.0070    6.9040    2.1770 h1        1 MOL      0.121477
     78 H34         0.2620    8.4320    1.2880 h1        1 MOL      0.121477
     79 N8          1.5070    6.0650    0.2810 n         1 MOL     -0.544758
     80 C25         2.3130    5.2330   -0.5560 c3        1 MOL      0.038866
     81 C26         1.6020    3.9440   -0.9410 c         1 MOL      0.648452
     82 O14         0.9000    3.3080   -0.1510 o         1 MOL     -0.643523
     83 C27         3.7010    5.0230    0.0670 c3        1 MOL      0.344486
     84 C28         4.6620    4.1220   -0.7210 c3        1 MOL     -0.438731
     85 O15         3.6830    4.4280    1.3790 oh        1 MOL     -0.637615
     86 H35         1.6580    5.9540    1.2770 hn        1 MOL      0.299822
     87 H36         2.6050    5.8230   -1.4260 h1        1 MOL      0.067980
     88 H37         4.1960    5.9940    0.0960 h1        1 MOL      0.027679
     89 H38         4.4990    3.9950    1.6570 ho        1 MOL      0.406879
     90 H39         4.2880    3.1430   -1.0140 hc        1 MOL      0.108929
     91 H40         4.8800    4.5330   -1.7110 hc        1 MOL      0.108929
     92 H41         5.5350    3.9120   -0.1050 hc        1 MOL      0.108929
     93 N9          1.7570    3.5460   -2.1810 n         1 MOL     -0.512910
     94 C29         1.1290    2.3940   -2.8690 c3        1 MOL      0.035380
     95 C30         1.6860    1.0280   -2.3220 c         1 MOL      0.572579
     96 O16         1.8190    0.8230   -1.1010 o         1 MOL     -0.580777
     97 C31        -0.4280    2.3420   -2.7990 c3        1 MOL      0.488721
     98 C32        -1.2070    3.6680   -3.0260 c3        1 MOL     -0.393108
     99 C33        -0.9330    1.2160   -3.7100 c3        1 MOL     -0.368674
    100 C34        -0.8630    4.5300   -4.2880 c3        1 MOL     -0.092270
    101 H42         2.3610    4.0480   -2.8170 hn        1 MOL      0.306742
    102 H43         1.4290    2.3780   -3.9150 h1        1 MOL      0.011090
    103 H44        -0.7170    2.0270   -1.7920 hc        1 MOL     -0.176482
    104 H45        -0.9240    4.3310   -2.2070 hc        1 MOL      0.151847
    105 H46        -2.2840    3.5400   -2.9120 hc        1 MOL      0.151847
    106 H47        -2.0120    1.0710   -3.7190 hc        1 MOL      0.083604
    107 H48        -0.5050    1.3660   -4.7030 hc        1 MOL      0.083604
    108 H49        -0.6030    0.2330   -3.3690 hc        1 MOL      0.083604
    109 H50        -1.5400    5.3670   -4.4570 hc        1 MOL      0.027979
    110 H51         0.1630    4.8880   -4.1770 hc        1 MOL      0.027979
    111 H52        -0.9940    3.8820   -5.1550 hc        1 MOL      0.027979
    112 N10         2.0750    0.1570   -3.2430 n         1 MOL     -0.415785
    113 C35         2.3910   -1.2310   -3.0190 c3        1 MOL     -0.232753
    114 C36         3.9150   -1.5450   -2.7910 c         1 MOL      0.411939
    115 O17         4.2650   -2.6820   -2.5880 o         1 MOL     -0.522971
    116 C37         1.8070   -2.1000   -4.1310 c3        1 MOL      0.501369
    117 C38         2.1520   -1.5080   -5.4920 c3        1 MOL     -0.258889
    118 O18         0.4490   -2.0580   -4.0850 oh        1 MOL     -0.616058
    119 H53         1.9060    0.4010   -4.2070 hn        1 MOL      0.271972
    120 H54         1.9720   -1.4890   -2.0480 h1        1 MOL      0.144997
    121 H55         2.1610   -3.1270   -4.0640 h1        1 MOL      0.007535
    122 H56         0.1970   -2.9130   -3.7090 ho        1 MOL      0.388157
    123 H57         1.5830   -0.5910   -5.6100 hc        1 MOL      0.055240
    124 H58         3.2310   -1.3560   -5.5860 hc        1 MOL      0.055240
    125 H59         1.8650   -2.2780   -6.2050 hc        1 MOL      0.055240
    126 N11         4.7160   -0.4580   -2.8070 n         1 MOL     -0.033747
    127 C39         6.2020   -0.5580   -2.7730 c3        1 MOL      0.020506
    128 C40         6.8490   -0.9470   -1.4440 c         1 MOL      0.417742
    129 O19         7.4580   -0.0700   -0.8450 o         1 MOL     -0.484376
    130 C41         6.7640    0.6870   -3.4310 c3        1 MOL      0.244107
    131 C42         6.3270    0.7920   -4.9500 c3        1 MOL     -0.174621
    132 O20         6.1700    1.9070   -2.8750 oh        1 MOL     -0.627752
    133 H60         4.2340    0.4220   -2.9160 hn        1 MOL      0.165610
    134 H61         6.3690   -1.3590   -3.4970 h1        1 MOL      0.027919
    135 H62         7.8490    0.7810   -3.4520 h1        1 MOL      0.047134
    136 H63         6.6040    2.6730   -3.2510 ho        1 MOL      0.411003
    137 H64         6.6040   -0.1490   -5.4210 hc        1 MOL      0.030145
    138 H65         5.2460    0.9220   -5.0130 hc        1 MOL      0.030145
    139 H66         6.9260    1.6140   -5.3470 hc        1 MOL      0.030145
    140 N12         6.5640   -2.1900   -0.9570 n         1 MOL     -0.513109
    141 C43         6.6450   -2.6200    0.4900 c3        1 MOL      0.098422
    142 C44         5.3770   -2.0270    1.1850 c         1 MOL      0.680707
    143 O21         4.9640   -0.9920    0.8200 o         1 MOL     -0.492678
    144 C45         8.0200   -2.4180    1.2090 c3        1 MOL     -0.423095
    145 C46         9.1660   -2.9710    0.3650 c3        1 MOL      0.012739
    146 C47        10.5280   -2.7910    1.0240 c3        1 MOL      0.037705
    147 C48        11.5290   -3.1360   -0.0730 c3        1 MOL     -0.102905
    148 N13        12.9110   -3.4850    0.4910 n4        1 MOL     -0.079480
    149 H67         6.0510   -2.7730   -1.6110 hn        1 MOL      0.308553
    150 H68         6.3560   -3.6740    0.4880 h1        1 MOL      0.078936
    151 H69         8.0600   -2.8620    2.2030 hc        1 MOL      0.142662
    152 H70         8.0930   -1.3560    1.4310 hc        1 MOL      0.142662
    153 H71         9.1530   -2.4320   -0.5830 hc        1 MOL      0.042417
    154 H72         8.8990   -3.9840    0.0710 hc        1 MOL      0.042417
    155 H73        10.5990   -3.4280    1.9090 hc        1 MOL      0.041728
    156 H74        10.5830   -1.7710    1.4010 hc        1 MOL      0.041728
    157 H75        11.6400   -2.2210   -0.6500 hx        1 MOL      0.108958
    158 H76        11.1820   -3.9030   -0.7640 hx        1 MOL      0.108958
    159 H77        13.6570   -3.4250   -0.1710 hn        1 MOL      0.169191
    160 H78        13.1740   -2.8560    1.2370 hn        1 MOL      0.169191
    161 H79        12.9440   -4.3510    1.0070 hn        1 MOL      0.169191
    162 N14         4.7280   -2.7500    2.1650 n         1 MOL     -0.683922
    163 C49         3.4120   -2.4340    2.7720 c3        1 MOL      0.332368
    164 C50         2.2440   -2.2310    1.7470 c         1 MOL      0.125855
    165 O22         1.5920   -1.1940    1.8230 o         1 MOL     -0.393168
    166 C51         3.1110   -3.5130    3.8270 c3        1 MOL      0.015324
    167 C52         3.7520   -3.2710    5.2290 c3        1 MOL     -0.265518
    168 C53         3.5420   -4.5180    6.1420 c         1 MOL      0.660840
    169 O23         2.3730   -4.8850    6.4010 o         1 MOL     -0.614260
    170 O24         4.4870   -5.2810    6.5240 o         1 MOL     -0.614260
    171 H80         5.2100   -3.5320    2.5760 hn        1 MOL      0.316631
    172 H81         3.4540   -1.4370    3.2130 h1        1 MOL      0.017601
    173 H82         3.3420   -4.5050    3.4470 hc        1 MOL      0.055833
    174 H83         2.0470   -3.4460    4.0460 hc        1 MOL      0.055833
    175 H84         3.3660   -2.3360    5.6390 hc        1 MOL      0.037646
    176 H85         4.8240   -3.2140    5.1070 hc        1 MOL      0.037646
    177 N15         1.9020   -3.1400    0.7890 n         1 MOL     -0.157263
    178 C54         2.3270   -4.5320    0.5860 c3        1 MOL      0.045145
    179 H86         2.1920   -4.8040   -0.4610 h1        1 MOL      0.004449
    180 H87         3.3790   -4.6350    0.8550 h1        1 MOL      0.004449
    181 H88         1.7250   -5.1900    1.2120 h1        1 MOL      0.004449
    182 H89         1.2110   -2.8020    0.1270 hn        1 MOL      0.268774
    183 Ca1         0.6770    1.2150    1.3090 Ca        1 MOL      1.752537
    184 O25         1.6640    0.9470    3.7160 oh        1 MOL     -0.883092
    185 H90         1.0890    0.7190    4.4510 ho        1 MOL      0.423370
    186 H91         2.4740    1.2330    4.1290 ho        1 MOL      0.423370
    187 O26         3.5630    1.4650    1.4160 oh        1 MOL     -0.883092
    188 H92         4.1750    2.1920    1.3970 ho        1 MOL      0.423370
    189 H93         4.0640    0.7240    1.0820 ho        1 MOL      0.423370
    190 O27        -1.4500    0.3080    2.8510 oh        1 MOL     -0.883092
    191 H94        -1.5120    1.0460    3.4590 ho        1 MOL      0.423370
    192 H95        -2.3420    0.2180    2.4980 ho        1 MOL      0.423370
@<TRIPOS>BOND
     1    1    2 1   
     2    1    4 1   
     3    1    5 1   
     4    1    6 1   
     5    2    3 2   
     6    2    7 1   
     7    7    8 1   
     8    7   15 1   
     9    8    9 1   
    10    8   11 1   
    11    8   16 1   
    12    9   10 2   
    13    9   19 1   
    14   11   12 1   
    15   11   17 1   
    16   11   18 1   
    17   12   13 1   
    18   12   14 1   
    19   19   20 1   
    20   19   28 1   
    21   20   21 1   
    22   20   23 1   
    23   20   29 1   
    24   21   22 2   
    25   21   41 1   
    26   23   24 1   
    27   23   30 1   
    28   23   31 1   
    29   24   25 1   
    30   24   32 1   
    31   24   33 1   
    32   25   26 1   
    33   25   34 1   
    34   25   35 1   
    35   26   27 1   
    36   26   36 1   
    37   26   37 1   
    38   27   38 1   
    39   27   39 1   
    40   27   40 1   
    41   41   42 1   
    42   41   49 1   
    43   42   43 1   
    44   42   45 1   
    45   42   50 1   
    46   43   44 2   
    47   43   53 1   
    48   45   46 1   
    49   45   51 1   
    50   45   52 1   
    51   46   47 1   
    52   46   48 1   
    53   53   54 1   
    54   53   57 1   
    55   54   55 1   
    56   54   58 1   
    57   54   59 1   
    58   55   56 2   
    59   55   60 1   
    60   60   61 1   
    61   60   68 1   
    62   61   62 1   
    63   61   64 1   
    64   61   69 1   
    65   62   63 2   
    66   62   72 1   
    67   64   65 1   
    68   64   70 1   
    69   64   71 1   
    70   65   66 1   
    71   65   67 1   
    72   72   73 1   
    73   72   76 1   
    74   73   74 1   
    75   73   77 1   
    76   73   78 1   
    77   74   75 2   
    78   74   79 1   
    79   79   80 1   
    80   79   86 1   
    81   80   81 1   
    82   80   83 1   
    83   80   87 1   
    84   81   82 2   
    85   81   93 1   
    86   83   84 1   
    87   83   85 1   
    88   83   88 1   
    89   84   90 1   
    90   84   91 1   
    91   84   92 1   
    92   85   89 1   
    93   93   94 1   
    94   93  101 1   
    95   94   95 1   
    96   94   97 1   
    97   94  102 1   
    98   95   96 2   
    99   95  112 1   
   100   97   98 1   
   101   97   99 1   
   102   97  103 1   
   103   98  100 1   
   104   98  104 1   
   105   98  105 1   
   106   99  106 1   
   107   99  107 1   
   108   99  108 1   
   109  100  109 1   
   110  100  110 1   
   111  100  111 1   
   112  112  113 1   
   113  112  119 1   
   114  113  114 1   
   115  113  116 1   
   116  113  120 1   
   117  114  115 2   
   118  114  126 1   
   119  116  117 1   
   120  116  118 1   
   121  116  121 1   
   122  117  123 1   
   123  117  124 1   
   124  117  125 1   
   125  118  122 1   
   126  126  127 1   
   127  126  133 1   
   128  127  128 1   
   129  127  130 1   
   130  127  134 1   
   131  128  129 2   
   132  128  140 1   
   133  130  131 1   
   134  130  132 1   
   135  130  135 1   
   136  131  137 1   
   137  131  138 1   
   138  131  139 1   
   139  132  136 1   
   140  140  141 1   
   141  140  149 1   
   142  141  142 1   
   143  141  144 1   
   144  141  150 1   
   145  142  143 2   
   146  142  162 1   
   147  144  145 1   
   148  144  151 1   
   149  144  152 1   
   150  145  146 1   
   151  145  153 1   
   152  145  154 1   
   153  146  147 1   
   154  146  155 1   
   155  146  156 1   
   156  147  148 1   
   157  147  157 1   
   158  147  158 1   
   159  148  159 1   
   160  148  160 1   
   161  148  161 1   
   162  162  163 1   
   163  162  171 1   
   164  163  164 1   
   165  163  166 1   
   166  163  172 1   
   167  164  165 2   
   168  164  177 1   
   169  166  167 1   
   170  166  173 1   
   171  166  174 1   
   172  167  168 1   
   173  167  175 1   
   174  167  176 1   
   175  168  169 1   
   176  168  170 1   
   177  177  178 1   
   178  177  182 1   
   179  178  179 1   
   180  178  180 1   
   181  178  181 1   
   182  184  185 1   
   183  184  186 1   
   184  187  188 1   
   185  187  189 1   
   186  190  191 1   
   187  190  192 1   
@<TRIPOS>SUBSTRUCTURE
     1 MOL         1 TEMP              0 ****  ****    0 ROOT
