@<TRIPOS>MOLECULE
MOL
  195   189     1     0     0
SMALL
resp


@<TRIPOS>ATOM
      1 C1          9.5350    6.8860   -1.8390 c3        1 MOL     -0.475852
      2 C2          8.8170    5.5200   -1.5650 c         1 MOL      0.654045
      3 O1          7.7150    5.2890   -2.0100 o         1 MOL     -0.601073
      4 H1          9.1470    7.6430   -1.1580 hc        1 MOL      0.121629
      5 H2         10.6070    6.7710   -1.6810 hc        1 MOL      0.121629
      6 H3          9.3510    7.1940   -2.8690 hc        1 MOL      0.121629
      7 N1          9.4930    4.6270   -0.8780 n         1 MOL     -0.439060
      8 C3          8.9180    3.4090   -0.4110 c3        1 MOL      0.133891
      9 C4          7.8010    3.7050    0.6770 c         1 MOL      0.336671
     10 O2          8.1120    4.2360    1.7390 o         1 MOL     -0.486003
     11 C5          9.9650    2.5380    0.2150 c3        1 MOL     -0.331671
     12 C6          9.4460    1.2340    0.6330 c         1 MOL      0.824042
     13 O3          9.6430    0.7730    1.7520 o         1 MOL     -0.713974
     14 O4          8.7520    0.6580   -0.2020 o         1 MOL     -0.713974
     15 H4         10.4570    4.8580   -0.6830 hn        1 MOL      0.292579
     16 H5          8.4460    2.9090   -1.2620 h1        1 MOL      0.024680
     17 H6         10.4360    3.0400    1.0560 hc        1 MOL      0.073202
     18 H7         10.7950    2.3940   -0.4750 hc        1 MOL      0.073202
     19 N2          6.5660    3.4410    0.2780 n         1 MOL     -0.111308
     20 C7          5.4870    3.7160    1.1540 c3        1 MOL      0.203256
     21 C8          5.0800    2.6840    2.2340 c         1 MOL      0.458404
     22 O5          4.5410    3.1870    3.1950 o         1 MOL     -0.580839
     23 C9          4.2760    4.3080    0.4310 c3        1 MOL      0.073195
     24 C10         4.5370    5.6330   -0.2570 c3        1 MOL     -0.044215
     25 C11         3.2460    6.5740   -0.3950 c3        1 MOL     -0.169396
     26 C12         2.0000    5.9430   -0.9870 c3        1 MOL      0.145614
     27 N3          0.9910    6.9290   -1.3800 n4        1 MOL     -0.550607
     28 H8          6.4090    3.0600   -0.6450 hn        1 MOL      0.194467
     29 H9          5.7910    4.4660    1.8830 h1        1 MOL      0.019549
     30 H10         3.4560    4.4720    1.1320 hc        1 MOL     -0.034668
     31 H11         3.9110    3.5910   -0.3090 hc        1 MOL     -0.034668
     32 H12         4.9380    5.3980   -1.2400 hc        1 MOL      0.028626
     33 H13         5.3440    6.1520    0.2800 hc        1 MOL      0.028626
     34 H14         3.4030    7.4080   -1.0890 hc        1 MOL      0.071234
     35 H15         2.8850    6.9820    0.5480 hc        1 MOL      0.071234
     36 H16         1.4950    5.3510   -0.2190 hx        1 MOL      0.104552
     37 H17         2.2400    5.2650   -1.8070 hx        1 MOL      0.104552
     38 H18         0.1970    6.4600   -1.7960 hn        1 MOL      0.363282
     39 H19         0.6650    7.5050   -0.6220 hn        1 MOL      0.363282
     40 H20         1.4460    7.5330   -2.0510 hn        1 MOL      0.363282
     41 N4          5.1180    1.3390    2.2320 n         1 MOL     -0.363734
     42 C13         5.6790    0.4820    1.1570 c3        1 MOL      0.251170
     43 C14         6.1320   -0.7990    1.8020 c         1 MOL      0.357088
     44 O6          5.6300   -1.1830    2.8480 o         1 MOL     -0.554570
     45 C15         4.5560    0.1910    0.1730 c3        1 MOL     -0.176776
     46 C16         3.3760   -0.5410    0.7160 c         1 MOL      0.732810
     47 O7          3.3930   -1.8030    0.5370 o         1 MOL     -0.715063
     48 O8          2.5070   -0.0130    1.4770 o         1 MOL     -0.715063
     49 H21         4.7830    0.9340    3.0890 hn        1 MOL      0.309732
     50 H22         6.5140    0.9820    0.6820 h1        1 MOL     -0.049063
     51 H23         4.9540   -0.4310   -0.6210 hc        1 MOL     -0.036161
     52 H24         4.1190    1.1440   -0.1300 hc        1 MOL     -0.036161
     53 N5          7.2300   -1.3430    1.3710 n         1 MOL     -0.006277
     54 C17         7.7690   -2.7100    1.7190 c3        1 MOL     -0.257117
     55 C18         6.9530   -3.9160    1.1690 c         1 MOL      0.418079
     56 O9          7.4860   -5.0320    1.2520 o         1 MOL     -0.498068
     57 H25         7.7670   -0.8510    0.6710 hn        1 MOL      0.135073
     58 H26         7.9920   -2.8450    2.7790 h1        1 MOL      0.148557
     59 H27         8.7400   -2.8720    1.2640 h1        1 MOL      0.148557
     60 N6          5.7240   -3.7230    0.6660 n         1 MOL     -0.036752
     61 C19         4.9920   -4.8170    0.0450 c3        1 MOL      0.061422
     62 C20         5.6700   -5.4470   -1.2330 c         1 MOL      0.413866
     63 O10         6.2750   -6.5550   -1.2490 o         1 MOL     -0.519789
     64 C21         4.4760   -5.8120    1.0940 c3        1 MOL      0.022448
     65 C22         3.6270   -5.2180    2.1970 c         1 MOL      0.681789
     66 O11         3.9280   -5.1530    3.4130 o         1 MOL     -0.723040
     67 O12         2.5290   -4.6640    1.8990 o         1 MOL     -0.723040
     68 H28         5.2320   -2.8400    0.7170 hn        1 MOL     -0.031843
     69 H29         4.1430   -4.2940   -0.4000 h1        1 MOL      0.025115
     70 H30         5.3130   -6.3650    1.5470 hc        1 MOL     -0.004530
     71 H31         3.8220   -6.5920    0.7030 hc        1 MOL     -0.004530
     72 N7          5.5900   -4.7490   -2.3670 n         1 MOL     -0.351963
     73 C23         4.8610   -3.5170   -2.6960 c3        1 MOL     -0.181629
     74 C24         3.3820   -3.9190   -2.7720 c         1 MOL      0.499268
     75 O13         2.9990   -4.7230   -3.6280 o         1 MOL     -0.535967
     76 H32         6.1700   -5.0990   -3.1100 hn        1 MOL      0.281757
     77 H33         5.1250   -3.1040   -3.6710 h1        1 MOL      0.131041
     78 H34         5.1070   -2.8730   -1.8480 h1        1 MOL      0.131041
     79 N8          2.5770   -3.1840   -1.9770 n         1 MOL     -0.220901
     80 C25         1.1150   -3.1130   -2.2080 c3        1 MOL     -0.208029
     81 C26         0.5600   -1.8050   -1.7180 c         1 MOL      0.402000
     82 O14         0.6200   -1.4980   -0.5250 o         1 MOL     -0.433930
     83 C27         0.3710   -4.2490   -1.5290 c3        1 MOL      0.350856
     84 C28        -1.1660   -4.0440   -1.4160 c3        1 MOL     -0.585430
     85 O15         0.8830   -4.4790   -0.2300 oh        1 MOL     -0.548008
     86 H35         3.0180   -2.5470   -1.3220 hn        1 MOL      0.222750
     87 H36         0.9270   -3.1130   -3.2810 h1        1 MOL      0.081309
     88 H37         0.5270   -5.1720   -2.0950 h1        1 MOL      0.033248
     89 H38         1.2470   -5.3510   -0.3960 ho        1 MOL      0.373389
     90 H39        -1.6570   -3.8620   -2.3740 hc        1 MOL      0.172970
     91 H40        -1.5440   -5.0120   -1.0930 hc        1 MOL      0.172970
     92 H41        -1.4550   -3.1710   -0.8290 hc        1 MOL      0.172970
     93 N9          0.0030   -0.9730   -2.6420 n         1 MOL     -0.421290
     94 C29        -0.2780    0.4450   -2.4030 c3        1 MOL     -0.159178
     95 C30        -1.5690    0.6640   -1.5400 c         1 MOL      0.722373
     96 O16        -1.7180    0.0520   -0.4830 o         1 MOL     -0.584874
     97 C31         0.9970    1.2510   -2.0250 c3        1 MOL      0.597892
     98 C32         2.2020    1.1130   -3.0100 c3        1 MOL     -0.110321
     99 C33         0.6710    2.7660   -1.8830 c3        1 MOL     -0.299848
    100 C34         1.8690    1.1380   -4.5150 c3        1 MOL     -0.119117
    101 H42        -0.3440   -1.3440   -3.5080 hn        1 MOL      0.312402
    102 H43        -0.5160    0.8810   -3.3820 h1        1 MOL      0.053637
    103 H44         1.2650    0.9850   -1.0000 hc        1 MOL     -0.053690
    104 H45         2.6930    0.1570   -2.8140 hc        1 MOL      0.041703
    105 H46         2.9540    1.8710   -2.7910 hc        1 MOL      0.041703
    106 H47         0.3420    3.1530   -2.8500 hc        1 MOL      0.012561
    107 H48        -0.0070    2.8490   -1.0420 hc        1 MOL      0.012561
    108 H49         1.6010    3.2620   -1.5980 hc        1 MOL      0.012561
    109 H50         1.6350    2.1710   -4.8180 hc        1 MOL      0.026518
    110 H51         2.7070    0.7910   -5.1190 hc        1 MOL      0.026518
    111 H52         0.9540    0.6140   -4.7660 hc        1 MOL      0.026518
    112 N10        -2.5210    1.5040   -2.0060 n         1 MOL     -0.673937
    113 C35        -3.5290    2.0760   -1.1520 c3        1 MOL     -0.006641
    114 C36        -4.8020    1.1780   -1.3390 c         1 MOL      0.607063
    115 O17        -5.8650    1.6130   -1.5840 o         1 MOL     -0.523560
    116 C37        -3.8170    3.5910   -1.4460 c3        1 MOL      0.631902
    117 C38        -4.3750    3.9930   -2.7750 c3        1 MOL     -0.098238
    118 O18        -2.5470    4.2520   -1.2200 oh        1 MOL     -0.709257
    119 H53        -2.5530    1.7750   -2.9810 hn        1 MOL      0.336987
    120 H54        -3.2660    1.8450   -0.1190 h1        1 MOL      0.075076
    121 H55        -4.5420    3.9700   -0.7260 h1        1 MOL     -0.129739
    122 H56        -2.3380    4.1410   -0.2880 ho        1 MOL      0.395466
    123 H57        -4.6340    5.0500   -2.7770 hc        1 MOL      0.013966
    124 H58        -3.6250    3.7700   -3.5340 hc        1 MOL      0.013966
    125 H59        -5.2840    3.4480   -3.0320 hc        1 MOL      0.013966
    126 N11        -4.6820   -0.1710   -1.1410 n         1 MOL     -0.487559
    127 C39        -5.7520   -1.1860   -1.2720 c3        1 MOL     -0.022416
    128 C40        -6.8290   -1.1270   -0.1130 c         1 MOL      0.574468
    129 O19        -6.4650   -0.9440    1.0370 o         1 MOL     -0.465103
    130 C41        -5.1630   -2.6520   -1.3720 c3        1 MOL      0.194672
    131 C42        -4.6860   -3.0400   -2.7570 c3        1 MOL     -0.110399
    132 O20        -4.0780   -2.9390   -0.4890 oh        1 MOL     -0.627858
    133 H60        -3.7930   -0.5720   -0.8600 hn        1 MOL      0.361072
    134 H61        -6.3270   -1.0460   -2.1870 h1        1 MOL      0.065482
    135 H62        -5.9660   -3.3050   -1.0480 h1        1 MOL      0.057525
    136 H63        -4.1580   -3.8940   -0.4420 ho        1 MOL      0.405632
    137 H64        -4.2890   -4.0450   -2.9130 hc        1 MOL      0.018173
    138 H65        -5.5280   -2.9760   -3.4470 hc        1 MOL      0.018173
    139 H66        -3.9910   -2.2950   -3.1330 hc        1 MOL      0.018173
    140 N12        -8.1270   -1.1970   -0.4610 n         1 MOL     -0.552990
    141 C43        -9.3440   -1.0860    0.3120 c3        1 MOL      0.204355
    142 C44        -9.2590    0.0970    1.3090 c         1 MOL      0.359426
    143 O21        -9.5280   -0.0030    2.5320 o         1 MOL     -0.460281
    144 C45        -9.5790   -2.4490    1.0490 c3        1 MOL     -0.288714
    145 C46        -9.7910   -3.6020    0.0670 c3        1 MOL     -0.195924
    146 C47       -11.0300   -3.4010   -0.7980 c3        1 MOL      0.031565
    147 C48       -11.4370   -4.6740   -1.5590 c3        1 MOL     -0.015495
    148 N13       -12.3000   -4.4100   -2.7080 n4        1 MOL     -0.265067
    149 H67        -8.2040   -1.3510   -1.4640 hn        1 MOL      0.257024
    150 H68       -10.2720   -0.8550   -0.2110 h1        1 MOL      0.010325
    151 H69       -10.4010   -2.4260    1.7660 hc        1 MOL      0.157719
    152 H70        -8.7790   -2.7560    1.7340 hc        1 MOL      0.157719
    153 H71       -10.1310   -4.5000    0.5920 hc        1 MOL      0.068130
    154 H72        -8.8840   -3.8460   -0.4820 hc        1 MOL      0.068130
    155 H73       -10.8510   -2.6650   -1.5880 hc        1 MOL      0.043386
    156 H74       -11.8520   -3.0820   -0.1600 hc        1 MOL      0.043386
    157 H75       -11.8500   -5.4050   -0.8700 hx        1 MOL      0.084334
    158 H76       -10.5590   -5.0990   -2.0520 hx        1 MOL      0.084334
    159 H77       -12.4720   -5.2940   -3.1580 hn        1 MOL      0.232525
    160 H78       -13.2100   -4.1300   -2.3600 hn        1 MOL      0.232525
    161 H79       -11.8620   -3.7130   -3.2940 hn        1 MOL      0.232525
    162 N14        -8.9700    1.2680    0.6700 n         1 MOL     -0.253265
    163 C49        -8.6390    2.5280    1.3210 c3        1 MOL      0.108632
    164 C50        -7.3180    3.2310    0.7920 c         1 MOL      0.418965
    165 O22        -6.2240    2.9480    1.3400 o         1 MOL     -0.536429
    166 C51        -9.8870    3.3170    1.6140 c3        1 MOL      0.084684
    167 C52       -10.8830    2.7200    2.6510 c3        1 MOL     -0.305959
    168 C53       -11.8730    3.8240    3.0690 c         1 MOL      0.723539
    169 O23       -11.5830    4.6650    3.9320 o         1 MOL     -0.629746
    170 O24       -12.9200    4.0110    2.4080 o         1 MOL     -0.629746
    171 H80        -9.0280    1.2670   -0.3400 hn        1 MOL      0.211749
    172 H81        -8.2670    2.2110    2.2920 h1        1 MOL      0.105515
    173 H82       -10.4130    3.4340    0.6620 hc        1 MOL      0.002610
    174 H83        -9.6850    4.3470    1.8860 hc        1 MOL      0.002610
    175 H84       -10.2970    2.3230    3.4730 hc        1 MOL      0.056664
    176 H85       -11.5180    1.9610    2.1850 hc        1 MOL      0.056664
    177 N15        -7.4110    4.2070   -0.1300 n         1 MOL     -0.412185
    178 C54        -8.5560    4.7860   -0.9130 c3        1 MOL     -0.049600
    179 H86        -8.8100    5.7680   -0.5130 h1        1 MOL      0.061909
    180 H87        -8.2680    4.8840   -1.9590 h1        1 MOL      0.061909
    181 H88        -9.4220    4.1280   -0.8330 h1        1 MOL      0.061909
    182 H89        -6.5490    4.5410   -0.5280 hn        1 MOL      0.331804
    183 Ca1         1.3030   -2.4020    1.9220 Ca        1 MOL      1.772940
    184 O25         0.2070   -1.8410    4.3180 oh        1 MOL     -0.910897
    185 H90        -0.6750   -1.6210    4.5960 ho        1 MOL      0.440863
    186 H91         0.7380   -1.7860    5.1130 ho        1 MOL      0.440863
    187 O26        -0.6320   -0.5040    1.6860 oh        1 MOL     -0.910897
    188 H92        -0.9990   -0.3150    0.8260 ho        1 MOL      0.440863
    189 H93        -1.0000    0.1650    2.2630 ho        1 MOL      0.440863
    190 O27         3.4970   -2.4030    3.3850 oh        1 MOL     -0.910897
    191 H94         3.6040   -3.2300    3.8410 ho        1 MOL      0.440863
    192 H95         4.3910   -2.0590    3.2840 ho        1 MOL      0.440863
    193 O28        -0.9690   -3.8130    2.0690 oh        1 MOL     -0.910897
    194 H96        -1.4430   -4.6190    2.2670 ho        1 MOL      0.440863
    195 H97        -1.6460   -3.1460    2.0280 ho        1 MOL      0.440863
@<TRIPOS>BOND
     1    1    2 1   
     2    1    4 1   
     3    1    5 1   
     4    1    6 1   
     5    2    3 2   
     6    2    7 1   
     7    7    8 1   
     8    7   15 1   
     9    8    9 1   
    10    8   11 1   
    11    8   16 1   
    12    9   10 2   
    13    9   19 1   
    14   11   12 1   
    15   11   17 1   
    16   11   18 1   
    17   12   13 1   
    18   12   14 1   
    19   19   20 1   
    20   19   28 1   
    21   20   21 1   
    22   20   23 1   
    23   20   29 1   
    24   21   22 2   
    25   21   41 1   
    26   23   24 1   
    27   23   30 1   
    28   23   31 1   
    29   24   25 1   
    30   24   32 1   
    31   24   33 1   
    32   25   26 1   
    33   25   34 1   
    34   25   35 1   
    35   26   27 1   
    36   26   36 1   
    37   26   37 1   
    38   27   38 1   
    39   27   39 1   
    40   27   40 1   
    41   41   42 1   
    42   41   49 1   
    43   42   43 1   
    44   42   45 1   
    45   42   50 1   
    46   43   44 2   
    47   43   53 1   
    48   45   46 1   
    49   45   51 1   
    50   45   52 1   
    51   46   47 1   
    52   46   48 1   
    53   53   54 1   
    54   53   57 1   
    55   54   55 1   
    56   54   58 1   
    57   54   59 1   
    58   55   56 2   
    59   55   60 1   
    60   60   61 1   
    61   60   68 1   
    62   61   62 1   
    63   61   64 1   
    64   61   69 1   
    65   62   63 2   
    66   62   72 1   
    67   64   65 1   
    68   64   70 1   
    69   64   71 1   
    70   65   66 1   
    71   65   67 1   
    72   72   73 1   
    73   72   76 1   
    74   73   74 1   
    75   73   77 1   
    76   73   78 1   
    77   74   75 2   
    78   74   79 1   
    79   79   80 1   
    80   79   86 1   
    81   80   81 1   
    82   80   83 1   
    83   80   87 1   
    84   81   82 2   
    85   81   93 1   
    86   83   84 1   
    87   83   85 1   
    88   83   88 1   
    89   84   90 1   
    90   84   91 1   
    91   84   92 1   
    92   85   89 1   
    93   93   94 1   
    94   93  101 1   
    95   94   95 1   
    96   94   97 1   
    97   94  102 1   
    98   95   96 2   
    99   95  112 1   
   100   97   98 1   
   101   97   99 1   
   102   97  103 1   
   103   98  100 1   
   104   98  104 1   
   105   98  105 1   
   106   99  106 1   
   107   99  107 1   
   108   99  108 1   
   109  100  109 1   
   110  100  110 1   
   111  100  111 1   
   112  112  113 1   
   113  112  119 1   
   114  113  114 1   
   115  113  116 1   
   116  113  120 1   
   117  114  115 2   
   118  114  126 1   
   119  116  117 1   
   120  116  118 1   
   121  116  121 1   
   122  117  123 1   
   123  117  124 1   
   124  117  125 1   
   125  118  122 1   
   126  126  127 1   
   127  126  133 1   
   128  127  128 1   
   129  127  130 1   
   130  127  134 1   
   131  128  129 2   
   132  128  140 1   
   133  130  131 1   
   134  130  132 1   
   135  130  135 1   
   136  131  137 1   
   137  131  138 1   
   138  131  139 1   
   139  132  136 1   
   140  140  141 1   
   141  140  149 1   
   142  141  142 1   
   143  141  144 1   
   144  141  150 1   
   145  142  143 2   
   146  142  162 1   
   147  144  145 1   
   148  144  151 1   
   149  144  152 1   
   150  145  146 1   
   151  145  153 1   
   152  145  154 1   
   153  146  147 1   
   154  146  155 1   
   155  146  156 1   
   156  147  148 1   
   157  147  157 1   
   158  147  158 1   
   159  148  159 1   
   160  148  160 1   
   161  148  161 1   
   162  162  163 1   
   163  162  171 1   
   164  163  164 1   
   165  163  166 1   
   166  163  172 1   
   167  164  165 2   
   168  164  177 1   
   169  166  167 1   
   170  166  173 1   
   171  166  174 1   
   172  167  168 1   
   173  167  175 1   
   174  167  176 1   
   175  168  169 1   
   176  168  170 1   
   177  177  178 1   
   178  177  182 1   
   179  178  179 1   
   180  178  180 1   
   181  178  181 1   
   182  184  185 1   
   183  184  186 1   
   184  187  188 1   
   185  187  189 1   
   186  190  191 1   
   187  190  192 1   
   188  193  194 1   
   189  193  195 1   
@<TRIPOS>SUBSTRUCTURE
     1 MOL         1 TEMP              0 ****  ****    0 ROOT
