@<TRIPOS>MOLECULE
MOL
  195   189     1     0     0
SMALL
resp


@<TRIPOS>ATOM
      1 C1         -4.2460   -1.5210    2.8070 c3        1 MOL     -0.332995
      2 C2         -3.2380   -2.2750    1.9340 c         1 MOL      0.673425
      3 O1         -2.2470   -1.6620    1.5310 o         1 MOL     -0.467192
      4 H1         -3.7230   -1.0430    3.6350 hc        1 MOL      0.082074
      5 H2         -4.7500   -0.7610    2.2090 hc        1 MOL      0.082074
      6 H3         -4.9830   -2.2220    3.2000 hc        1 MOL      0.082074
      7 N1         -3.5300   -3.5330    1.6150 n         1 MOL     -0.699387
      8 C3         -2.7510   -4.3570    0.5720 c3        1 MOL     -0.178725
      9 C4         -1.2080   -4.3870    0.7760 c         1 MOL      0.802627
     10 O2         -0.4100   -4.2300   -0.1820 o         1 MOL     -0.563017
     11 C5         -3.2440   -4.0420   -0.8530 c3        1 MOL     -0.215436
     12 C6         -4.8080   -4.1590   -0.9360 c         1 MOL      0.650930
     13 O3         -5.3910   -5.2470   -1.2760 o         1 MOL     -0.685635
     14 O4         -5.4680   -3.0830   -0.8320 o         1 MOL     -0.685635
     15 H4         -4.3110   -3.9440    2.1040 hn        1 MOL      0.372752
     16 H5         -3.0180   -5.3670    0.8830 h1        1 MOL      0.139043
     17 H6         -2.7200   -4.6980   -1.5520 hc        1 MOL      0.122025
     18 H7         -2.8830   -3.0490   -1.1470 hc        1 MOL      0.122025
     19 N2         -0.8410   -4.6610    1.9950 n         1 MOL     -0.744385
     20 C7          0.5920   -4.7400    2.3110 c3        1 MOL      0.051837
     21 C8          1.3260   -6.0420    1.8350 c         1 MOL      0.584580
     22 O5          0.7620   -7.1240    2.0440 o         1 MOL     -0.581148
     23 C9          0.7190   -4.5220    3.8240 c3        1 MOL      0.036677
     24 C10        -0.0260   -5.6220    4.6380 c3        1 MOL      0.164093
     25 C11         0.2110   -3.1120    4.1860 c3        1 MOL     -0.196238
     26 C12         0.4750   -5.6030    6.1040 c3        1 MOL     -0.302486
     27 H8         -1.5450   -4.6000    2.7290 hn        1 MOL      0.412875
     28 H9          0.9990   -3.8650    1.7950 h1        1 MOL      0.134327
     29 H10         1.7820   -4.4850    4.0470 hc        1 MOL      0.055021
     30 H11         0.0700   -6.6190    4.2100 hc        1 MOL     -0.033335
     31 H12        -1.1050   -5.4420    4.5960 hc        1 MOL     -0.033335
     32 H13         0.7790   -2.4080    3.5680 hc        1 MOL      0.047286
     33 H14        -0.8500   -3.0590    3.9620 hc        1 MOL      0.047286
     34 H15         0.4480   -2.8490    5.2170 hc        1 MOL      0.047286
     35 H16         1.5120   -5.9260    6.0700 hc        1 MOL      0.061893
     36 H17         0.3510   -4.6530    6.6320 hc        1 MOL      0.061893
     37 H18         0.0470   -6.3150    6.8050 hc        1 MOL      0.061893
     38 N3          2.5240   -6.0150    1.1870 n         1 MOL     -0.482939
     39 C13         3.2860   -4.8960    0.6050 c3        1 MOL      0.014770
     40 C14         4.1330   -5.5030   -0.5630 c         1 MOL      0.537015
     41 O6          4.4910   -6.6810   -0.5070 o         1 MOL     -0.544930
     42 C15         4.1390   -4.3740    1.6860 c3        1 MOL     -0.072037
     43 C16         5.0090   -3.1950    1.3440 c         1 MOL      0.758614
     44 O7          5.9600   -3.3370    0.5870 o         1 MOL     -0.741584
     45 O8          4.6010   -2.1090    1.7860 o         1 MOL     -0.741584
     46 H19         2.8490   -6.9430    0.9650 hn        1 MOL      0.277654
     47 H20         2.5860   -4.1420    0.2240 h1        1 MOL      0.075844
     48 H21         4.8370   -5.1480    2.0020 hc        1 MOL     -0.013487
     49 H22         3.4330   -4.2950    2.5080 hc        1 MOL     -0.013487
     50 N4          4.3570   -4.6980   -1.6100 n         1 MOL     -0.331489
     51 C17         5.0190   -5.1140   -2.8240 c3        1 MOL     -0.110243
     52 C18         6.0400   -4.0850   -3.2580 c         1 MOL      0.565616
     53 O9          6.2790   -3.8920   -4.4530 o         1 MOL     -0.595739
     54 H23         4.0410   -3.7460   -1.5090 hn        1 MOL      0.274967
     55 H24         4.2990   -5.2540   -3.6330 h1        1 MOL      0.074913
     56 H25         5.5860   -6.0250   -2.6300 h1        1 MOL      0.074913
     57 N5          6.4920   -3.3180   -2.2800 n         1 MOL     -0.422505
     58 C19         7.3460   -2.1140   -2.6050 c3        1 MOL      0.108655
     59 C20         8.3120   -1.6190   -1.5430 c         1 MOL      0.368689
     60 O10         9.5170   -1.3770   -1.8360 o         1 MOL     -0.567231
     61 C21         6.4130   -0.9990   -2.9750 c3        1 MOL     -0.343345
     62 C22         5.1870   -0.7120   -2.0450 c         1 MOL      0.685912
     63 O11         4.0170   -1.2120   -2.2110 o         1 MOL     -0.664887
     64 O12         5.2400    0.1190   -1.0810 o         1 MOL     -0.664887
     65 H26         6.1970   -3.5560   -1.3470 hn        1 MOL      0.245637
     66 H27         8.0110   -2.4010   -3.4190 h1        1 MOL      0.068829
     67 H28         6.0630   -1.2550   -3.9780 hc        1 MOL      0.104315
     68 H29         6.9600   -0.0620   -3.0870 hc        1 MOL      0.104315
     69 N6          7.7480   -1.3540   -0.3600 n         1 MOL     -0.170540
     70 C23         8.3620   -0.5910    0.7460 c3        1 MOL     -0.302868
     71 C24         8.4110    0.9880    0.5730 c         1 MOL      0.531837
     72 O13         9.0740    1.6740    1.3360 o         1 MOL     -0.584851
     73 H30         6.7880   -1.6400   -0.2230 hn        1 MOL      0.349233
     74 H31         9.3540   -1.0280    0.8660 h1        1 MOL      0.125606
     75 H32         7.7110   -0.7820    1.6090 h1        1 MOL      0.125606
     76 N7          7.7620    1.4930   -0.4990 n         1 MOL      0.006586
     77 C25         7.5920    2.8910   -0.8110 c3        1 MOL      0.006422
     78 C26         7.1400    3.9310    0.2170 c         1 MOL      0.461268
     79 O14         7.3860    5.1630    0.0580 o         1 MOL     -0.541181
     80 C27         8.7540    3.3860   -1.7490 c3        1 MOL      0.039837
     81 C28         9.0820    2.3290   -2.8390 c3        1 MOL     -0.086445
     82 C29         9.9860    2.9140   -3.9240 c         1 MOL      0.630091
     83 N8         11.2470    3.1880   -3.6390 n         1 MOL     -0.797887
     84 O15         9.5890    2.9270   -5.0990 o         1 MOL     -0.577544
     85 H33         7.0910    0.8200   -0.8400 hn        1 MOL      0.042683
     86 H34         6.7010    2.8580   -1.4390 h1        1 MOL      0.076345
     87 H35         9.6180    3.7160   -1.1750 hc        1 MOL     -0.014882
     88 H36         8.4640    4.3100   -2.2390 hc        1 MOL     -0.014882
     89 H37         8.1970    1.9360   -3.3500 hc        1 MOL      0.014219
     90 H38         9.5560    1.5360   -2.2730 hc        1 MOL      0.014219
     91 H39        11.5200    3.2620   -2.6710 hn        1 MOL      0.354485
     92 H40        11.8750    3.4000   -4.3990 hn        1 MOL      0.354485
     93 N9          6.3820    3.4070    1.1760 n         1 MOL     -0.393054
     94 C30         5.7190    4.2100    2.2970 c3        1 MOL     -0.053927
     95 C31         4.1680    4.2220    2.3470 c         1 MOL      0.573624
     96 O16         3.5700    5.0940    2.9910 o         1 MOL     -0.561924
     97 C32         6.3680    3.8390    3.6420 c3        1 MOL      0.321613
     98 C33         6.1510    2.3880    4.0980 c3        1 MOL     -0.370305
     99 C34         7.9340    4.1260    3.6440 c3        1 MOL     -0.370305
    100 H41         6.2720    2.4010    1.0890 hn        1 MOL      0.258270
    101 H42         6.0910    5.2270    2.1690 h1        1 MOL      0.086065
    102 H43         5.9810    4.5510    4.3630 hc        1 MOL     -0.047007
    103 H44         6.6920    2.1000    4.9980 hc        1 MOL      0.084921
    104 H45         5.0970    2.2160    4.3000 hc        1 MOL      0.084921
    105 H46         6.5790    1.7420    3.3230 hc        1 MOL      0.084921
    106 H47         8.5590    3.6180    2.9100 hc        1 MOL      0.084921
    107 H48         7.9780    5.2100    3.5460 hc        1 MOL      0.084921
    108 H49         8.3390    3.8850    4.6270 hc        1 MOL      0.084921
    109 N10         3.5930    3.1980    1.6770 n         1 MOL     -0.438437
    110 C35         2.1970    2.9310    1.8190 c3        1 MOL      0.165369
    111 C36         1.3930    3.4440    0.5700 c         1 MOL      0.605492
    112 O17         1.9380    3.6730   -0.5130 o         1 MOL     -0.539720
    113 C37         2.0640    1.3500    1.9290 c3        1 MOL     -0.165717
    114 C38         0.6290    0.9080    2.1500 c         1 MOL      0.472587
    115 N11         0.1100   -0.0420    1.3290 n         1 MOL     -0.520491
    116 O18        -0.2070    1.5100    2.8180 o         1 MOL     -0.556109
    117 H50         4.0940    2.4830    1.1600 hn        1 MOL      0.246176
    118 H51         1.7460    3.4100    2.6890 h1        1 MOL      0.036789
    119 H52         2.6880    1.1230    2.7850 hc        1 MOL      0.105093
    120 H53         2.4820    0.8610    1.0490 hc        1 MOL      0.105093
    121 H54         0.7910   -0.5880    0.8160 hn        1 MOL      0.287251
    122 H55        -0.8320   -0.3830    1.3930 hn        1 MOL      0.287251
    123 N12         0.0640    3.5410    0.7890 n         1 MOL     -0.702642
    124 C39        -0.9710    3.5990   -0.2800 c3        1 MOL      0.242287
    125 C40        -2.3080    4.0330    0.2190 c         1 MOL      0.621388
    126 O19        -2.8920    3.4610    1.1520 o         1 MOL     -0.584442
    127 C41        -0.9590    2.2960   -1.0980 c3        1 MOL      0.025274
    128 C42        -2.3050    1.5920   -1.4450 ca        1 MOL     -0.089959
    129 C43        -2.7340    0.6190   -0.4760 ca        1 MOL     -0.111676
    130 C44        -3.0500    1.8880   -2.5950 ca        1 MOL     -0.111676
    131 C45        -3.8940   -0.0620   -0.7220 ca        1 MOL     -0.172654
    132 C46        -4.1640    1.1000   -2.8840 ca        1 MOL     -0.172654
    133 C47        -4.5250    0.1100   -1.9730 ca        1 MOL      0.244969
    134 O20        -5.4750   -0.7690   -2.3320 oh        1 MOL     -0.496864
    135 H56        -0.2780    3.2470    1.6950 hn        1 MOL      0.331851
    136 H57        -0.6360    4.3680   -0.9810 h1        1 MOL      0.032252
    137 H58        -0.1990    1.6240   -0.6980 hc        1 MOL      0.023946
    138 H59        -0.6400    2.5800   -2.1080 hc        1 MOL      0.023946
    139 H60        -2.2740    0.5110    0.4970 ha        1 MOL      0.121844
    140 H61        -2.6580    2.6210   -3.2870 ha        1 MOL      0.121844
    141 H62        -4.1310   -0.8400   -0.0070 ha        1 MOL      0.096329
    142 H63        -4.7550    1.1560   -3.7910 ha        1 MOL      0.096329
    143 H64        -5.6450   -1.4150   -1.6450 ho        1 MOL      0.362157
    144 N13        -2.8970    5.0200   -0.3860 n         1 MOL     -0.606205
    145 C48        -4.3010    5.4030   -0.3620 c3        1 MOL      0.252194
    146 C49        -5.1060    4.6530   -1.4670 c         1 MOL      0.387277
    147 O21        -4.8690    4.9090   -2.6480 o         1 MOL     -0.546459
    148 C50        -4.4350    6.9080   -0.4320 c3        1 MOL     -0.151944
    149 C51        -5.9100    7.3070   -0.2510 c3        1 MOL     -0.148581
    150 C52        -6.2670    8.7070   -0.7660 c         1 MOL      0.672851
    151 O22        -6.7590    8.8010   -1.9060 o         1 MOL     -0.699726
    152 O23        -5.9930    9.6630    0.0600 o         1 MOL     -0.699726
    153 H65        -2.3780    5.5700   -1.0530 hn        1 MOL      0.279222
    154 H66        -4.6980    5.1260    0.6200 h1        1 MOL      0.040850
    155 H67        -4.1670    7.1400   -1.4610 hc        1 MOL      0.068131
    156 H68        -3.6860    7.4450    0.1460 hc        1 MOL      0.068131
    157 H69        -6.2250    7.1680    0.7790 hc        1 MOL      0.044638
    158 H70        -6.5320    6.5740   -0.7710 hc        1 MOL      0.044638
    159 N14        -6.0500    3.7480   -1.2510 n         1 MOL     -0.233612
    160 C53        -6.4380    3.1310   -0.0140 c3        1 MOL     -0.376461
    161 C54        -7.0760    3.9860    1.0900 c         1 MOL      0.410365
    162 O24        -7.9090    4.9060    0.8400 o         1 MOL     -0.483709
    163 C55        -7.2750    1.9280   -0.4860 c3        1 MOL      0.136492
    164 C56        -7.1740    0.9370    0.6570 c3        1 MOL      0.507050
    165 C57        -8.0970   -0.2200    0.3420 c         1 MOL      0.368325
    166 O25        -7.7640   -1.1210   -0.4360 o         1 MOL     -0.674281
    167 O26        -9.2310   -0.1610    0.7740 o         1 MOL     -0.674281
    168 H71        -6.4810    3.4500   -2.1080 hn        1 MOL      0.246567
    169 H72        -5.4280    2.8190    0.2300 h1        1 MOL      0.230887
    170 H73        -6.8930    1.4790   -1.4050 hc        1 MOL      0.003620
    171 H74        -8.3080    2.2410   -0.6550 hc        1 MOL      0.003620
    172 H75        -7.5320    1.3470    1.5980 hc        1 MOL     -0.153297
    173 H76        -6.1220    0.6470    0.7110 hc        1 MOL     -0.153297
    174 N15        -6.6990    3.7430    2.3460 n         1 MOL     -0.221124
    175 C58        -6.8520    4.6620    3.5590 c3        1 MOL     -0.054399
    176 H77        -7.4140    4.1450    4.3370 h1        1 MOL      0.057160
    177 H78        -5.8660    4.9280    3.9400 h1        1 MOL      0.057160
    178 H79        -7.3860    5.5660    3.2660 h1        1 MOL      0.057160
    179 H80        -5.9430    3.0950    2.4950 hn        1 MOL      0.226751
    180 Ca1        -7.9070   -3.5140   -1.3860 Ca        1 MOL      1.665236
    181 O27        -8.2640   -1.6470   -3.1130 oh        1 MOL     -0.808592
    182 H81        -8.1590   -0.8340   -2.6240 ho        1 MOL      0.389751
    183 H82        -9.1270   -1.5770   -3.5250 ho        1 MOL      0.389751
    184 O28       -10.0260   -2.7250    0.3530 oh        1 MOL     -0.808592
    185 H83       -10.3830   -2.9430    1.2210 ho        1 MOL      0.389751
    186 H84        -9.8280   -1.7980    0.4020 ho        1 MOL      0.389751
    187 O29       -10.5440   -4.5580   -2.1940 oh        1 MOL     -0.808592
    188 H85       -11.0380   -5.3760   -2.2830 ho        1 MOL      0.389751
    189 H86       -10.6110   -4.1410   -3.0520 ho        1 MOL      0.389751
    190 O30        -8.3330   -6.2260   -1.6300 oh        1 MOL     -0.808592
    191 H87        -8.4960   -6.5880   -2.4970 ho        1 MOL      0.389751
    192 H88        -7.6650   -6.7890   -1.2470 ho        1 MOL      0.389751
    193 O31        -7.2750   -4.5280   -3.7430 oh        1 MOL     -0.808592
    194 H89        -7.5870   -5.1280   -4.4250 ho        1 MOL      0.389751
    195 H90        -6.5730   -4.0350   -4.1670 ho        1 MOL      0.389751
@<TRIPOS>BOND
     1    1    2 1   
     2    1    4 1   
     3    1    5 1   
     4    1    6 1   
     5    2    3 2   
     6    2    7 1   
     7    7    8 1   
     8    7   15 1   
     9    8    9 1   
    10    8   11 1   
    11    8   16 1   
    12    9   10 2   
    13    9   19 1   
    14   11   12 1   
    15   11   17 1   
    16   11   18 1   
    17   12   13 1   
    18   12   14 1   
    19   19   20 1   
    20   19   27 1   
    21   20   21 1   
    22   20   23 1   
    23   20   28 1   
    24   21   22 2   
    25   21   38 1   
    26   23   24 1   
    27   23   25 1   
    28   23   29 1   
    29   24   26 1   
    30   24   30 1   
    31   24   31 1   
    32   25   32 1   
    33   25   33 1   
    34   25   34 1   
    35   26   35 1   
    36   26   36 1   
    37   26   37 1   
    38   38   39 1   
    39   38   46 1   
    40   39   40 1   
    41   39   42 1   
    42   39   47 1   
    43   40   41 2   
    44   40   50 1   
    45   42   43 1   
    46   42   48 1   
    47   42   49 1   
    48   43   44 1   
    49   43   45 1   
    50   50   51 1   
    51   50   54 1   
    52   51   52 1   
    53   51   55 1   
    54   51   56 1   
    55   52   53 2   
    56   52   57 1   
    57   57   58 1   
    58   57   65 1   
    59   58   59 1   
    60   58   61 1   
    61   58   66 1   
    62   59   60 2   
    63   59   69 1   
    64   61   62 1   
    65   61   67 1   
    66   61   68 1   
    67   62   63 1   
    68   62   64 1   
    69   69   70 1   
    70   69   73 1   
    71   70   71 1   
    72   70   74 1   
    73   70   75 1   
    74   71   72 2   
    75   71   76 1   
    76   76   77 1   
    77   76   85 1   
    78   77   78 1   
    79   77   80 1   
    80   77   86 1   
    81   78   79 2   
    82   78   93 1   
    83   80   81 1   
    84   80   87 1   
    85   80   88 1   
    86   81   82 1   
    87   81   89 1   
    88   81   90 1   
    89   82   83 1   
    90   82   84 2   
    91   83   91 1   
    92   83   92 1   
    93   93   94 1   
    94   93  100 1   
    95   94   95 1   
    96   94   97 1   
    97   94  101 1   
    98   95   96 2   
    99   95  109 1   
   100   97   98 1   
   101   97   99 1   
   102   97  102 1   
   103   98  103 1   
   104   98  104 1   
   105   98  105 1   
   106   99  106 1   
   107   99  107 1   
   108   99  108 1   
   109  109  110 1   
   110  109  117 1   
   111  110  111 1   
   112  110  113 1   
   113  110  118 1   
   114  111  112 2   
   115  111  123 1   
   116  113  114 1   
   117  113  119 1   
   118  113  120 1   
   119  114  115 1   
   120  114  116 2   
   121  115  121 1   
   122  115  122 1   
   123  123  124 1   
   124  123  135 1   
   125  124  125 1   
   126  124  127 1   
   127  124  136 1   
   128  125  126 2   
   129  125  144 1   
   130  127  128 1   
   131  127  137 1   
   132  127  138 1   
   133  128  129 ar  
   134  128  130 ar  
   135  129  131 ar  
   136  129  139 1   
   137  130  132 ar  
   138  130  140 1   
   139  131  133 ar  
   140  131  141 1   
   141  132  133 ar  
   142  132  142 1   
   143  133  134 1   
   144  134  143 1   
   145  144  145 1   
   146  144  153 1   
   147  145  146 1   
   148  145  148 1   
   149  145  154 1   
   150  146  147 2   
   151  146  159 1   
   152  148  149 1   
   153  148  155 1   
   154  148  156 1   
   155  149  150 1   
   156  149  157 1   
   157  149  158 1   
   158  150  151 1   
   159  150  152 1   
   160  159  160 1   
   161  159  168 1   
   162  160  161 1   
   163  160  163 1   
   164  160  169 1   
   165  161  162 2   
   166  161  174 1   
   167  163  164 1   
   168  163  170 1   
   169  163  171 1   
   170  164  165 1   
   171  164  172 1   
   172  164  173 1   
   173  165  166 1   
   174  165  167 1   
   175  174  175 1   
   176  174  179 1   
   177  175  176 1   
   178  175  177 1   
   179  175  178 1   
   180  181  182 1   
   181  181  183 1   
   182  184  185 1   
   183  184  186 1   
   184  187  188 1   
   185  187  189 1   
   186  190  191 1   
   187  190  192 1   
   188  193  194 1   
   189  193  195 1   
@<TRIPOS>SUBSTRUCTURE
     1 MOL         1 TEMP              0 ****  ****    0 ROOT
