@<TRIPOS>MOLECULE
MOL
  179   176     1     0     0
SMALL
resp


@<TRIPOS>ATOM
      1 C1          1.8690   -4.0930    6.1930 c3        1 MOL     -0.301906
      2 C2          1.8570   -4.0080    4.6580 c         1 MOL      0.717366
      3 O1          0.9280   -4.4500    3.9510 o         1 MOL     -0.567186
      4 H1          0.8440   -4.0780    6.5640 hc        1 MOL      0.085394
      5 H2          2.3540   -5.0190    6.5020 hc        1 MOL      0.085394
      6 H3          2.4150   -3.2420    6.6000 hc        1 MOL      0.085394
      7 N1          2.8950   -3.4220    4.0260 n         1 MOL     -0.566181
      8 C3          2.9990   -3.1780    2.5960 c3        1 MOL     -0.001979
      9 C4          3.2610   -4.4410    1.7010 c         1 MOL      0.672888
     10 O2          3.8490   -5.4330    2.1470 o         1 MOL     -0.532001
     11 C5          4.0850   -2.0590    2.2650 c3        1 MOL      0.109038
     12 C6          3.7060   -1.1450    1.2190 c         1 MOL      0.117493
     13 O3          4.3060   -0.0320    1.1060 o         1 MOL     -0.590458
     14 O4          3.0170   -1.5120    0.2570 o         1 MOL     -0.590458
     15 H4          3.6190   -3.0900    4.6480 hn        1 MOL      0.304173
     16 H5          2.0690   -2.7400    2.2450 h1        1 MOL     -0.111629
     17 H6          5.0220   -2.5590    2.0230 hc        1 MOL      0.029754
     18 H7          4.0910   -1.4460    3.1680 hc        1 MOL      0.029754
     19 N2          2.7930   -4.3960    0.4260 n         1 MOL     -0.564419
     20 C7          3.2760   -5.2850   -0.5930 c3        1 MOL      0.126917
     21 C8          4.7450   -4.9950   -1.1520 c         1 MOL      0.339114
     22 O5          5.3670   -5.9870   -1.5160 o         1 MOL     -0.512520
     23 C9          2.2850   -5.2330   -1.7430 c3        1 MOL     -0.057568
     24 C10         0.8350   -5.6200   -1.2900 c3        1 MOL     -0.126275
     25 C11        -0.1230   -5.3060   -2.5080 c3        1 MOL      0.062166
     26 C12        -0.3940   -3.8210   -2.8320 c3        1 MOL      0.004106
     27 N3         -1.6410   -3.6240   -3.6580 n4        1 MOL     -0.319130
     28 H8          2.3940   -3.5380    0.0990 hn        1 MOL      0.390950
     29 H9          3.2740   -6.2920   -0.1700 h1        1 MOL      0.092503
     30 H10         2.5790   -6.0010   -2.4570 hc        1 MOL      0.051416
     31 H11         2.1930   -4.2170   -2.1320 hc        1 MOL      0.051416
     32 H12         0.4140   -5.0640   -0.4510 hc        1 MOL      0.055298
     33 H13         0.8510   -6.6860   -1.0790 hc        1 MOL      0.055298
     34 H14        -0.9940   -5.8640   -2.1800 hc        1 MOL      0.012796
     35 H15         0.2170   -5.8200   -3.4140 hc        1 MOL      0.012796
     36 H16         0.5360   -3.6010   -3.3620 hx        1 MOL      0.050956
     37 H17        -0.4570   -3.2190   -1.9200 hx        1 MOL      0.050956
     38 H18        -1.5620   -4.0620   -4.5670 hn        1 MOL      0.267451
     39 H19        -2.3990   -4.0430   -3.1410 hn        1 MOL      0.267451
     40 H20        -1.7060   -2.6700   -3.9810 hn        1 MOL      0.267451
     41 N4          5.1890   -3.7680   -1.2020 n         1 MOL     -0.245206
     42 C13         6.4310   -3.3020   -1.8780 c3        1 MOL      0.339481
     43 C14         7.3980   -2.6050   -0.9010 c         1 MOL      0.292542
     44 O6          8.5510   -3.0550   -0.7820 o         1 MOL     -0.513725
     45 C15         6.0840   -2.3460   -3.0030 c3        1 MOL     -0.300432
     46 C16         4.8120   -1.5150   -2.6710 c         1 MOL      0.686745
     47 O7          3.6960   -1.7190   -3.2140 o         1 MOL     -0.716257
     48 O8          4.8730   -0.6880   -1.7310 o         1 MOL     -0.716257
     49 H21         4.6360   -3.0890   -0.7040 hn        1 MOL      0.183925
     50 H22         6.9880   -4.1670   -2.2620 h1        1 MOL      0.030222
     51 H23         5.7590   -2.9340   -3.8620 hc        1 MOL      0.070948
     52 H24         6.9620   -1.7320   -3.2060 hc        1 MOL      0.070948
     53 N5          7.0050   -1.5380   -0.1840 n         1 MOL     -0.170064
     54 C17         7.9490   -0.8820    0.6910 c3        1 MOL     -0.091617
     55 C18         7.8220    0.6030    0.6420 c         1 MOL      0.433519
     56 O9          8.5050    1.2740    1.3850 o         1 MOL     -0.536498
     57 H25         6.0120   -1.3280   -0.2030 hn        1 MOL      0.239954
     58 H26         8.9810   -1.0230    0.3790 h1        1 MOL      0.112956
     59 H27         7.9920   -1.2830    1.6990 h1        1 MOL      0.112956
     60 N6          6.9900    1.1300   -0.2290 n         1 MOL     -0.124844
     61 C19         7.0470    2.5180   -0.7450 c3        1 MOL      0.002699
     62 C20         5.6450    3.1970   -0.6380 c         1 MOL      0.758550
     63 O10         4.6400    2.5270   -0.5570 o         1 MOL     -0.701189
     64 C21         7.5580    2.6130   -2.2280 c3        1 MOL     -0.290551
     65 C22         8.8740    1.8730   -2.4110 c         1 MOL      0.753090
     66 N7          8.9790    0.8540   -3.2310 n         1 MOL     -0.848531
     67 O11         9.9040    2.2190   -1.8730 o         1 MOL     -0.537979
     68 H28         6.3600    0.4850   -0.6750 hn        1 MOL      0.087787
     69 H29         7.7190    3.1020   -0.1250 h1        1 MOL      0.058507
     70 H30         7.7330    3.6240   -2.5940 hc        1 MOL      0.043310
     71 H31         6.7340    2.1480   -2.7640 hc        1 MOL      0.043310
     72 H32         8.2180    0.6000   -3.8420 hn        1 MOL      0.387679
     73 H33         9.8970    0.4350   -3.3070 hn        1 MOL      0.387679
     74 N8          5.7030    4.5370   -0.6480 n         1 MOL     -0.518037
     75 C23         4.6730    5.5070   -0.5490 c3        1 MOL     -0.022889
     76 C24         3.5870    5.2410    0.5140 c         1 MOL      0.639936
     77 O12         3.9800    4.9770    1.6590 o         1 MOL     -0.486915
     78 H34         6.5120    4.9060   -1.1390 hn        1 MOL      0.341766
     79 H35         4.1920    5.6340   -1.5210 h1        1 MOL      0.059106
     80 H36         5.1340    6.4670   -0.3150 h1        1 MOL      0.059106
     81 N9          2.3060    5.3320    0.1330 n         1 MOL     -0.750935
     82 C25         1.0670    4.7640    0.8540 c3        1 MOL      0.376136
     83 C26         1.2010    3.2900    1.2270 c         1 MOL      0.527013
     84 O13         2.0600    2.6340    0.6340 o         1 MOL     -0.430076
     85 C27        -0.2840    5.0480    0.1160 c3        1 MOL     -0.314136
     86 C28        -0.6180    6.5200   -0.2740 ca        1 MOL      0.149007
     87 C29        -0.0490    7.5850    0.4570 ca        1 MOL     -0.226490
     88 C30        -1.6330    6.7750   -1.1970 ca        1 MOL     -0.226490
     89 C31        -0.4820    8.9520    0.2570 ca        1 MOL     -0.225149
     90 C32        -2.2000    8.1290   -1.3840 ca        1 MOL     -0.225149
     91 C33        -1.5640    9.1690   -0.6710 ca        1 MOL      0.285303
     92 O14        -2.0970   10.3840   -0.8090 oh        1 MOL     -0.445107
     93 H37         2.1840    5.5760   -0.8390 hn        1 MOL      0.343323
     94 H38         0.8650    5.2300    1.8160 h1        1 MOL      0.025555
     95 H39        -1.1140    4.6600    0.7020 hc        1 MOL      0.093983
     96 H40        -0.2460    4.5830   -0.8730 hc        1 MOL      0.093983
     97 H41         0.7150    7.3930    1.1950 ha        1 MOL      0.151960
     98 H42        -2.0600    5.9720   -1.7810 ha        1 MOL      0.151960
     99 H43        -0.1100    9.7960    0.8160 ha        1 MOL      0.166357
    100 H44        -2.9460    8.3910   -2.1210 ha        1 MOL      0.166357
    101 H45        -1.6340   11.0150   -0.2480 ho        1 MOL      0.363350
    102 N10         0.2390    2.8630    2.0950 n         1 MOL     -0.800752
    103 C34         0.0140    1.4950    2.6450 c3        1 MOL      0.207442
    104 C35        -0.1060    0.4300    1.5760 c         1 MOL      0.215131
    105 O15         0.8290    0.1270    0.8650 o         1 MOL     -0.084598
    106 C36         1.0970    1.1380    3.6780 c3        1 MOL      0.230427
    107 C37         0.9150   -0.2560    4.3660 c3        1 MOL      0.082639
    108 C38         1.3470    2.2560    4.7490 c3        1 MOL     -0.106155
    109 C39        -0.4250   -0.5810    4.9750 c3        1 MOL     -0.334691
    110 H46        -0.4320    3.5510    2.3950 hn        1 MOL      0.399976
    111 H47        -0.9730    1.5440    3.1050 h1        1 MOL      0.029275
    112 H48         2.0360    1.0970    3.1310 hc        1 MOL     -0.003962
    113 H49         1.7160   -0.5120    5.0570 hc        1 MOL      0.035709
    114 H50         1.0600   -0.9980    3.5810 hc        1 MOL      0.035709
    115 H51         2.0110    1.7640    5.4660 hc        1 MOL      0.015436
    116 H52         1.8170    3.0600    4.1880 hc        1 MOL      0.015436
    117 H53         0.4180    2.5900    5.2210 hc        1 MOL      0.015436
    118 H54        -0.3460   -1.6340    5.2530 hc        1 MOL      0.072357
    119 H55        -0.4980    0.1450    5.7860 hc        1 MOL      0.072357
    120 H56        -1.2630   -0.4530    4.2940 hc        1 MOL      0.072357
    121 N11        -1.2640   -0.1910    1.5760 n         1 MOL     -0.457550
    122 C40        -1.7150   -1.2580    0.7120 c3        1 MOL      0.133841
    123 C41        -3.2560   -1.4580    0.7160 c         1 MOL      0.598329
    124 O16        -3.8760   -2.0500    1.5710 o         1 MOL     -0.510894
    125 C42        -1.0600   -2.5490    1.1040 c3        1 MOL     -0.017799
    126 O17         0.1300   -2.6730    0.4000 oh        1 MOL     -0.156369
    127 H57        -1.9510    0.1340    2.2510 hn        1 MOL      0.311185
    128 H58        -1.4420   -0.9840   -0.3040 h1        1 MOL      0.038466
    129 H59        -1.6630   -3.4110    0.8180 h1        1 MOL      0.070382
    130 H60        -0.9230   -2.5850    2.1840 h1        1 MOL      0.070382
    131 H61         0.4510   -1.7730    0.3200 ho        1 MOL      0.042709
    132 N12        -3.8810   -0.9980   -0.4020 n         1 MOL     -0.754501
    133 C43        -5.3290   -0.9850   -0.5380 c3        1 MOL      0.493998
    134 C44        -5.7780   -1.1290   -2.0380 c         1 MOL      0.504423
    135 O18        -4.9890   -0.9160   -2.9390 o         1 MOL     -0.585606
    136 C45        -5.8830    0.3400    0.0200 c3        1 MOL     -0.273076
    137 H62        -3.3770   -0.6020   -1.1740 hn        1 MOL      0.284896
    138 H63        -5.8090   -1.7980    0.0170 h1        1 MOL      0.011354
    139 H64        -6.9670    0.3780    0.0100 hc        1 MOL      0.070109
    140 H65        -5.4550    0.4610    1.0130 hc        1 MOL      0.070109
    141 H66        -5.6040    1.1210   -0.6940 hc        1 MOL      0.070109
    142 N13        -7.0980   -1.2870   -2.3950 n         1 MOL     -0.579747
    143 C46        -8.3020   -1.5590   -1.6240 c3        1 MOL      0.446116
    144 C47        -9.5750   -0.9170   -2.2210 c         1 MOL      0.226868
    145 O19        -9.5530   -0.6030   -3.4230 o         1 MOL     -0.517284
    146 C48        -8.3800   -3.0860   -1.5780 c3        1 MOL     -0.385371
    147 H67        -7.1380   -1.2300   -3.4060 hn        1 MOL      0.332939
    148 H68        -8.1180   -1.1830   -0.6190 h1        1 MOL     -0.061828
    149 H69        -8.7360   -3.3360   -2.5820 hc        1 MOL      0.105789
    150 H70        -7.3650   -3.4740   -1.4670 hc        1 MOL      0.105789
    151 H71        -9.0540   -3.4630   -0.8190 hc        1 MOL      0.105789
    152 N14       -10.6570   -0.6900   -1.5370 n         1 MOL     -0.144347
    153 C49       -10.9310   -1.0720   -0.1080 c3        1 MOL     -0.208437
    154 C50       -10.4840    0.0160    0.8990 c         1 MOL      0.624456
    155 O20       -10.1220   -0.2380    2.0280 o         1 MOL     -0.553955
    156 C51       -12.4600   -1.3740    0.1940 c3        1 MOL      0.128265
    157 C52       -13.4600   -0.1910   -0.1840 c3        1 MOL     -0.111904
    158 C53       -14.9090   -0.5160    0.0100 c         1 MOL      0.699904
    159 O21       -15.6340    0.3710    0.5550 o         1 MOL     -0.640467
    160 O22       -15.4090   -1.5960   -0.2700 o         1 MOL     -0.640467
    161 H72       -11.4500   -0.3690   -2.0680 hn        1 MOL      0.277965
    162 H73       -10.3240   -1.9380    0.1730 h1        1 MOL      0.060875
    163 H74       -12.6220   -1.6470    1.2350 hc        1 MOL      0.000309
    164 H75       -12.8320   -2.1580   -0.4710 hc        1 MOL      0.000309
    165 H76       -13.2320    0.2150   -1.1720 hc        1 MOL     -0.021226
    166 H77       -13.1740    0.5960    0.5110 hc        1 MOL     -0.021226
    167 N15       -10.3840    1.2640    0.4040 n         1 MOL     -0.208206
    168 C54        -9.7710    2.3680    1.1430 c3        1 MOL     -0.296928
    169 H78       -10.4320    2.6710    1.9550 h1        1 MOL      0.119242
    170 H79        -8.8150    2.0440    1.5540 h1        1 MOL      0.119242
    171 H80        -9.6120    3.2120    0.4720 h1        1 MOL      0.119242
    172 H81       -10.6150    1.3870   -0.5710 hn        1 MOL      0.180458
    173 Ca1         2.8340    0.6450   -0.9520 Ca        1 MOL      1.800782
    174 O23         1.4880   -1.1540   -2.4020 oh        1 MOL     -0.966992
    175 H82         2.3080   -1.4640   -2.7710 ho        1 MOL      0.426636
    176 H83         0.8760   -1.1610   -3.1400 ho        1 MOL      0.426636
    177 O24         0.5290    1.5780   -1.8260 oh        1 MOL     -0.966992
    178 H84        -0.2370    1.0050   -1.8100 ho        1 MOL      0.426636
    179 H85         0.2420    2.3430   -2.3290 ho        1 MOL      0.426636
@<TRIPOS>BOND
     1    1    2 1   
     2    1    4 1   
     3    1    5 1   
     4    1    6 1   
     5    2    3 2   
     6    2    7 1   
     7    7    8 1   
     8    7   15 1   
     9    8    9 1   
    10    8   11 1   
    11    8   16 1   
    12    9   10 2   
    13    9   19 1   
    14   11   12 1   
    15   11   17 1   
    16   11   18 1   
    17   12   13 1   
    18   12   14 1   
    19   19   20 1   
    20   19   28 1   
    21   20   21 1   
    22   20   23 1   
    23   20   29 1   
    24   21   22 2   
    25   21   41 1   
    26   23   24 1   
    27   23   30 1   
    28   23   31 1   
    29   24   25 1   
    30   24   32 1   
    31   24   33 1   
    32   25   26 1   
    33   25   34 1   
    34   25   35 1   
    35   26   27 1   
    36   26   36 1   
    37   26   37 1   
    38   27   38 1   
    39   27   39 1   
    40   27   40 1   
    41   41   42 1   
    42   41   49 1   
    43   42   43 1   
    44   42   45 1   
    45   42   50 1   
    46   43   44 2   
    47   43   53 1   
    48   45   46 1   
    49   45   51 1   
    50   45   52 1   
    51   46   47 1   
    52   46   48 1   
    53   53   54 1   
    54   53   57 1   
    55   54   55 1   
    56   54   58 1   
    57   54   59 1   
    58   55   56 2   
    59   55   60 1   
    60   60   61 1   
    61   60   68 1   
    62   61   62 1   
    63   61   64 1   
    64   61   69 1   
    65   62   63 2   
    66   62   74 1   
    67   64   65 1   
    68   64   70 1   
    69   64   71 1   
    70   65   66 1   
    71   65   67 2   
    72   66   72 1   
    73   66   73 1   
    74   74   75 1   
    75   74   78 1   
    76   75   76 1   
    77   75   79 1   
    78   75   80 1   
    79   76   77 2   
    80   76   81 1   
    81   81   82 1   
    82   81   93 1   
    83   82   83 1   
    84   82   85 1   
    85   82   94 1   
    86   83   84 2   
    87   83  102 1   
    88   85   86 1   
    89   85   95 1   
    90   85   96 1   
    91   86   87 ar  
    92   86   88 ar  
    93   87   89 ar  
    94   87   97 1   
    95   88   90 ar  
    96   88   98 1   
    97   89   91 ar  
    98   89   99 1   
    99   90   91 ar  
   100   90  100 1   
   101   91   92 1   
   102   92  101 1   
   103  102  103 1   
   104  102  110 1   
   105  103  104 1   
   106  103  106 1   
   107  103  111 1   
   108  104  105 2   
   109  104  121 1   
   110  106  107 1   
   111  106  108 1   
   112  106  112 1   
   113  107  109 1   
   114  107  113 1   
   115  107  114 1   
   116  108  115 1   
   117  108  116 1   
   118  108  117 1   
   119  109  118 1   
   120  109  119 1   
   121  109  120 1   
   122  121  122 1   
   123  121  127 1   
   124  122  123 1   
   125  122  125 1   
   126  122  128 1   
   127  123  124 2   
   128  123  132 1   
   129  125  126 1   
   130  125  129 1   
   131  125  130 1   
   132  126  131 1   
   133  132  133 1   
   134  132  137 1   
   135  133  134 1   
   136  133  136 1   
   137  133  138 1   
   138  134  135 2   
   139  134  142 1   
   140  136  139 1   
   141  136  140 1   
   142  136  141 1   
   143  142  143 1   
   144  142  147 1   
   145  143  144 1   
   146  143  146 1   
   147  143  148 1   
   148  144  145 2   
   149  144  152 1   
   150  146  149 1   
   151  146  150 1   
   152  146  151 1   
   153  152  153 1   
   154  152  161 1   
   155  153  154 1   
   156  153  156 1   
   157  153  162 1   
   158  154  155 2   
   159  154  167 1   
   160  156  157 1   
   161  156  163 1   
   162  156  164 1   
   163  157  158 1   
   164  157  165 1   
   165  157  166 1   
   166  158  159 1   
   167  158  160 1   
   168  167  168 1   
   169  167  172 1   
   170  168  169 1   
   171  168  170 1   
   172  168  171 1   
   173  174  175 1   
   174  174  176 1   
   175  177  178 1   
   176  177  179 1   
@<TRIPOS>SUBSTRUCTURE
     1 MOL         1 TEMP              0 ****  ****    0 ROOT
