@<TRIPOS>MOLECULE
MOL
  188   182     1     0     0
SMALL
resp


@<TRIPOS>ATOM
      1 C1         -6.1670    2.6740   -2.2790 c3        1 MOL     -0.363122
      2 C2         -6.7800    2.0890   -0.9530 c         1 MOL      0.480622
      3 O1         -6.1920    1.2920   -0.2660 o         1 MOL     -0.388832
      4 H1         -6.6870    3.5950   -2.5430 hc        1 MOL      0.098000
      5 H2         -5.1080    2.8840   -2.1280 hc        1 MOL      0.098000
      6 H3         -6.2830    1.9490   -3.0840 hc        1 MOL      0.098000
      7 N1         -8.0020    2.5000   -0.5940 n         1 MOL     -0.395514
      8 C3         -8.8180    1.8640    0.4290 c3        1 MOL      0.039906
      9 C4         -8.9170    0.3500    0.2820 c         1 MOL      0.417557
     10 O2         -8.8800   -0.3280    1.2660 o         1 MOL     -0.463907
     11 C5         -8.3800    2.4090    1.8520 c3        1 MOL     -0.187545
     12 C6         -9.4450    2.2340    2.8920 c         1 MOL      0.754087
     13 O3        -10.5890    2.2180    2.5400 o         1 MOL     -0.672041
     14 O4         -9.1470    2.2310    4.0740 o         1 MOL     -0.672041
     15 H4         -8.4990    3.0560   -1.2780 hn        1 MOL      0.273098
     16 H5         -9.8270    2.2080    0.2140 h1        1 MOL      0.034183
     17 H6         -8.1430    3.4750    1.7910 hc        1 MOL      0.060166
     18 H7         -7.4600    1.9400    2.1920 hc        1 MOL      0.060166
     19 N2         -8.9840   -0.2130   -0.8960 n         1 MOL     -0.191190
     20 C7         -8.8690   -1.6710   -1.1280 c3        1 MOL     -0.021204
     21 C8         -7.4410   -2.2700   -1.1660 c         1 MOL      0.589561
     22 O5         -7.3440   -3.4010   -1.5930 o         1 MOL     -0.587725
     23 C9         -9.6860   -2.1120   -2.3810 c3        1 MOL     -0.173846
     24 C10       -11.1520   -1.6690   -2.3470 c3        1 MOL     -0.024081
     25 C11       -12.0200   -2.4940   -1.4060 c3        1 MOL      0.085097
     26 C12       -13.5050   -2.2620   -1.6070 c3        1 MOL     -0.027144
     27 N3        -14.3310   -3.3400   -1.0170 n4        1 MOL     -0.185289
     28 H8         -8.8820    0.4030   -1.6770 hn        1 MOL      0.172448
     29 H9         -9.3290   -2.0740   -0.2270 h1        1 MOL      0.077012
     30 H10        -9.7790   -3.1750   -2.6230 hc        1 MOL      0.080219
     31 H11        -9.2740   -1.6480   -3.2840 hc        1 MOL      0.080219
     32 H12       -11.5360   -1.7710   -3.3590 hc        1 MOL      0.002668
     33 H13       -11.2350   -0.6490   -1.9780 hc        1 MOL      0.002668
     34 H14       -11.8300   -2.1950   -0.3780 hc        1 MOL      0.024958
     35 H15       -11.7480   -3.5430   -1.5100 hc        1 MOL      0.024958
     36 H16       -13.6060   -2.1930   -2.6840 hx        1 MOL      0.080911
     37 H17       -13.7740   -1.2900   -1.1980 hx        1 MOL      0.080911
     38 H18       -14.5520   -3.0950   -0.0610 hn        1 MOL      0.232848
     39 H19       -15.2450   -3.3460   -1.4450 hn        1 MOL      0.232848
     40 H20       -13.9040   -4.2510   -0.9220 hn        1 MOL      0.232848
     41 N4         -6.4080   -1.6210   -0.6630 n         1 MOL     -0.404909
     42 C13        -4.9880   -2.1370   -0.6570 c3        1 MOL      0.126162
     43 C14        -4.6080   -2.4350    0.7990 c         1 MOL      0.518110
     44 O6         -4.9780   -1.6540    1.7050 o         1 MOL     -0.436459
     45 C15        -4.1630   -0.9860   -1.2480 c3        1 MOL     -0.060850
     46 C16        -2.6770   -1.3000   -1.3470 c         1 MOL      0.646597
     47 O7         -2.1990   -2.0020   -2.3090 o         1 MOL     -0.735871
     48 O8         -1.8910   -0.8390   -0.4680 o         1 MOL     -0.735871
     49 H21        -6.5560   -0.7320   -0.2080 hn        1 MOL      0.161736
     50 H22        -4.8270   -3.0360   -1.2380 h1        1 MOL      0.028922
     51 H23        -4.2920   -0.0410   -0.7170 hc        1 MOL      0.024117
     52 H24        -4.5550   -0.8930   -2.2620 hc        1 MOL      0.024117
     53 N5         -3.7760   -3.3940    1.0570 n         1 MOL     -0.411880
     54 C17        -3.5140   -3.9040    2.4370 c3        1 MOL     -0.097354
     55 C18        -2.6730   -3.0390    3.2790 c         1 MOL      0.505138
     56 O9         -2.9720   -2.9120    4.4820 o         1 MOL     -0.530821
     57 H25        -3.4270   -3.9190    0.2710 hn        1 MOL      0.270170
     58 H26        -3.0620   -4.8990    2.4430 h1        1 MOL      0.110199
     59 H27        -4.4710   -3.9380    2.9630 h1        1 MOL      0.110199
     60 N6         -1.6870   -2.3360    2.7240 n         1 MOL     -0.315968
     61 C19        -0.9340   -1.2730    3.4160 c3        1 MOL     -0.005899
     62 C20        -1.2790    0.1780    3.1260 c         1 MOL      0.493428
     63 O10        -0.6760    1.0290    3.6770 o         1 MOL     -0.542930
     64 C21         0.5810   -1.4840    3.4710 c3        1 MOL     -0.178000
     65 C22         1.2710   -1.2390    2.1390 c         1 MOL      0.824996
     66 N7          2.5610   -1.4260    2.2320 n         1 MOL     -0.967258
     67 O11         0.7670   -0.8730    1.1200 o         1 MOL     -0.634324
     68 H28        -1.6040   -2.4060    1.7180 hn        1 MOL      0.082532
     69 H29        -1.1830   -1.3020    4.4790 h1        1 MOL      0.132843
     70 H30         0.8280   -2.4760    3.8360 hc        1 MOL      0.073421
     71 H31         1.0180   -0.8070    4.2020 hc        1 MOL      0.073421
     72 H32         2.9500   -1.8470    3.0560 hn        1 MOL      0.396966
     73 H33         3.1890   -0.8910    1.6540 hn        1 MOL      0.396966
     74 N8         -2.4170    0.3430    2.4720 n         1 MOL     -0.203635
     75 C23        -3.1220    1.6310    2.2090 c3        1 MOL     -0.182735
     76 C24        -2.4200    2.6220    1.2820 c         1 MOL      0.614959
     77 O12        -2.7980    3.7620    1.3800 o         1 MOL     -0.540990
     78 H34        -2.8740   -0.4580    2.0710 hn        1 MOL      0.189903
     79 H35        -3.2530    2.2400    3.0980 h1        1 MOL      0.122900
     80 H36        -4.1090    1.4530    1.7790 h1        1 MOL      0.122900
     81 N9         -1.3740    2.1860    0.5260 n         1 MOL     -0.492515
     82 C25        -0.4560    2.9880   -0.2610 c3        1 MOL      0.035724
     83 C26         0.8270    2.1740   -0.4160 c         1 MOL      0.482652
     84 O13         0.8240    0.9890   -0.9100 o         1 MOL     -0.592224
     85 C27        -1.0410    3.2970   -1.5680 c3        1 MOL     -0.120144
     86 C28        -0.2240    4.1100   -2.5680 ca        1 MOL      0.224436
     87 C29         0.0200    5.4350   -2.3290 ca        1 MOL     -0.312092
     88 C30        -0.0190    3.5900   -3.8920 ca        1 MOL     -0.312092
     89 C31         0.5410    6.2520   -3.3260 ca        1 MOL     -0.118173
     90 C32         0.5770    4.3600   -4.8830 ca        1 MOL     -0.118173
     91 C33         0.7730    5.7260   -4.6320 ca        1 MOL      0.280500
     92 O14         1.0550    6.5130   -5.7150 oh        1 MOL     -0.521205
     93 H37        -1.2440    1.1850    0.4410 hn        1 MOL      0.334558
     94 H38        -0.2840    3.8290    0.4120 h1        1 MOL      0.081972
     95 H39        -1.9940    3.8030   -1.4020 hc        1 MOL      0.074237
     96 H40        -1.2580    2.3590   -2.0810 hc        1 MOL      0.074237
     97 H41        -0.2370    5.9030   -1.3890 ha        1 MOL      0.159204
     98 H42        -0.2400    2.5520   -4.1000 ha        1 MOL      0.159204
     99 H43         0.8510    7.2920   -3.2370 ha        1 MOL      0.120057
    100 H44         0.8280    3.9890   -5.8600 ha        1 MOL      0.120057
    101 H45         1.3390    6.0860   -6.5350 ho        1 MOL      0.391832
    102 N10         1.9770    2.7790   -0.1080 n         1 MOL     -0.388182
    103 C34         3.2730    2.1240   -0.3130 c3        1 MOL     -0.130935
    104 C35         3.8350    1.5380    0.9850 c         1 MOL      0.861386
    105 O15         4.3410    0.5100    1.0420 o         1 MOL     -0.674903
    106 C36         4.2060    3.0700   -1.0090 c3        1 MOL      0.092540
    107 C37         3.6360    3.6380   -2.3920 c3        1 MOL      0.154224
    108 C38         5.6500    2.6200   -1.2000 c3        1 MOL     -0.414625
    109 C39         3.3970    2.6290   -3.3930 c3        1 MOL      0.014321
    110 H46         2.0190    3.7530    0.1640 hn        1 MOL      0.275037
    111 H47         3.1440    1.2970   -1.0090 h1        1 MOL      0.130751
    112 H48         4.2480    3.9450   -0.3550 hc        1 MOL     -0.029640
    113 H49         4.2900    4.4740   -2.6680 hc        1 MOL     -0.040492
    114 H50         2.7020    4.2040   -2.2550 hc        1 MOL     -0.040492
    115 H51         6.1490    2.1550   -0.3500 hc        1 MOL      0.129614
    116 H52         5.5810    1.9860   -2.0800 hc        1 MOL      0.129614
    117 H53         6.2690    3.4960   -1.4280 hc        1 MOL      0.129614
    118 H54         4.2540    2.0210   -3.6850 hc        1 MOL     -0.026584
    119 H55         2.5620    2.0210   -3.0410 hc        1 MOL     -0.026584
    120 H56         3.0420    3.1770   -4.2640 hc        1 MOL     -0.026584
    121 N11         3.6200    2.3000    2.0540 n         1 MOL     -0.490516
    122 C40         3.6260    1.7740    3.4520 c3        1 MOL     -0.121903
    123 C41         5.0050    1.2940    3.9690 c         1 MOL      0.667482
    124 O16         5.0110    0.5010    4.9000 o         1 MOL     -0.556337
    125 C42         3.1220    2.8550    4.3930 c3        1 MOL      0.067449
    126 O17         3.7890    4.1140    4.1470 oh        1 MOL     -0.657340
    127 H57         3.0920    3.1630    1.9430 hn        1 MOL      0.311256
    128 H58         2.9740    0.9150    3.5670 h1        1 MOL      0.099195
    129 H59         3.2560    2.6470    5.4510 h1        1 MOL      0.082943
    130 H60         2.0450    2.9590    4.2690 h1        1 MOL      0.082943
    131 H61         3.5310    4.7310    4.8400 ho        1 MOL      0.442071
    132 N12         6.0790    1.7890    3.3860 n         1 MOL     -0.381252
    133 C43         7.4700    1.3530    3.6680 c3        1 MOL      0.204849
    134 C44         7.8200   -0.1350    3.1670 c         1 MOL      0.466951
    135 O18         8.3200   -0.8960    3.9110 o         1 MOL     -0.493587
    136 C45         7.9510    1.5960    5.1150 c3        1 MOL     -0.372226
    137 H62         6.0170    2.4230    2.6030 hn        1 MOL      0.247631
    138 H63         8.0210    1.9500    2.9420 h1        1 MOL      0.015804
    139 H64         7.9130    2.6620    5.3300 hc        1 MOL      0.108489
    140 H65         7.3200    1.0530    5.8280 hc        1 MOL      0.108489
    141 H66         8.9750    1.2250    5.1710 hc        1 MOL      0.108489
    142 N13         7.3120   -0.4660    1.9930 n         1 MOL     -0.455917
    143 C46         7.5980   -1.7310    1.3300 c3        1 MOL      0.445035
    144 C47         8.2140   -1.4550   -0.1000 c         1 MOL      0.253297
    145 O19         7.6070   -0.7500   -0.9240 o         1 MOL     -0.417081
    146 C48         6.2760   -2.5350    1.1870 c3        1 MOL     -0.315097
    147 H67         6.7860    0.2230    1.4580 hn        1 MOL      0.164359
    148 H68         8.2900   -2.3240    1.9130 h1        1 MOL     -0.020376
    149 H69         5.4510   -1.8850    0.9020 hc        1 MOL      0.092519
    150 H70         6.2310   -3.2720    0.3870 hc        1 MOL      0.092519
    151 H71         6.0030   -2.9670    2.1550 hc        1 MOL      0.092519
    152 N14         9.3230   -2.1860   -0.3960 n         1 MOL     -0.529097
    153 C49         9.9640   -2.4550   -1.7080 c3        1 MOL      0.226454
    154 C50        10.4960   -1.1510   -2.3290 c         1 MOL      0.314286
    155 O20        10.5030   -0.9480   -3.5550 o         1 MOL     -0.482858
    156 C51         9.0390   -3.2300   -2.6830 c3        1 MOL     -0.022549
    157 C52         8.5880   -4.6070   -2.1740 c3        1 MOL      0.003864
    158 C53         7.1560   -4.9420   -2.6090 c         1 MOL      0.744577
    159 O21         6.4280   -5.5200   -1.7980 o         1 MOL     -0.751739
    160 O22         6.8910   -4.6580   -3.8350 o         1 MOL     -0.751739
    161 H72         9.6770   -2.7930    0.3350 hn        1 MOL      0.307987
    162 H73        10.8450   -3.0570   -1.5070 h1        1 MOL      0.003207
    163 H74         9.5410   -3.4210   -3.6300 hc        1 MOL      0.032251
    164 H75         8.1530   -2.6070   -2.8170 hc        1 MOL      0.032251
    165 H76         8.4860   -4.5830   -1.0830 hc        1 MOL     -0.054939
    166 H77         9.3020   -5.3730   -2.4620 hc        1 MOL     -0.054939
    167 N15        10.8170   -0.1680   -1.4800 n         1 MOL     -0.154009
    168 C54        11.2260    1.2110   -1.8740 c3        1 MOL     -0.196823
    169 H78        10.3500    1.7670   -2.2060 h1        1 MOL      0.090963
    170 H79        11.6740    1.7160   -1.0180 h1        1 MOL      0.090963
    171 H80        11.9510    1.1570   -2.6850 h1        1 MOL      0.090963
    172 H81        11.0160   -0.4300   -0.5200 hn        1 MOL      0.185495
    173 Ca1         0.6190   -1.5490   -1.3790 Ca        1 MOL      1.791552
    174 O23         0.0940   -0.5080   -3.6600 oh        1 MOL     -0.847283
    175 H82         0.6650   -0.0170   -4.2420 ho        1 MOL      0.425208
    176 H83        -0.7370   -0.5640   -4.1210 ho        1 MOL      0.425208
    177 O24         2.5040   -3.2490   -0.4080 oh        1 MOL     -0.847283
    178 H84         2.6750   -3.4640    0.5060 ho        1 MOL      0.425208
    179 H85         3.0310   -3.8910   -0.8990 ho        1 MOL      0.425208
    180 O25        -0.5110   -3.6760    0.0060 oh        1 MOL     -0.847283
    181 H86         0.0030   -4.2150    0.5960 ho        1 MOL      0.425208
    182 H87        -1.2300   -4.2410   -0.2750 ho        1 MOL      0.425208
    183 O26         3.0230   -1.1920   -2.5410 oh        1 MOL     -0.847283
    184 H88         3.9360   -1.2970   -2.2650 ho        1 MOL      0.425208
    185 H89         3.0550   -1.2770   -3.5010 ho        1 MOL      0.425208
    186 O27         1.0430   -3.9010   -3.0530 oh        1 MOL     -0.847283
    187 H90         1.5800   -4.6640   -2.8350 ho        1 MOL      0.425208
    188 H91         0.4640   -4.2000   -3.7560 ho        1 MOL      0.425208
@<TRIPOS>BOND
     1    1    2 1   
     2    1    4 1   
     3    1    5 1   
     4    1    6 1   
     5    2    3 2   
     6    2    7 1   
     7    7    8 1   
     8    7   15 1   
     9    8    9 1   
    10    8   11 1   
    11    8   16 1   
    12    9   10 2   
    13    9   19 1   
    14   11   12 1   
    15   11   17 1   
    16   11   18 1   
    17   12   13 1   
    18   12   14 1   
    19   19   20 1   
    20   19   28 1   
    21   20   21 1   
    22   20   23 1   
    23   20   29 1   
    24   21   22 2   
    25   21   41 1   
    26   23   24 1   
    27   23   30 1   
    28   23   31 1   
    29   24   25 1   
    30   24   32 1   
    31   24   33 1   
    32   25   26 1   
    33   25   34 1   
    34   25   35 1   
    35   26   27 1   
    36   26   36 1   
    37   26   37 1   
    38   27   38 1   
    39   27   39 1   
    40   27   40 1   
    41   41   42 1   
    42   41   49 1   
    43   42   43 1   
    44   42   45 1   
    45   42   50 1   
    46   43   44 2   
    47   43   53 1   
    48   45   46 1   
    49   45   51 1   
    50   45   52 1   
    51   46   47 1   
    52   46   48 1   
    53   53   54 1   
    54   53   57 1   
    55   54   55 1   
    56   54   58 1   
    57   54   59 1   
    58   55   56 2   
    59   55   60 1   
    60   60   61 1   
    61   60   68 1   
    62   61   62 1   
    63   61   64 1   
    64   61   69 1   
    65   62   63 2   
    66   62   74 1   
    67   64   65 1   
    68   64   70 1   
    69   64   71 1   
    70   65   66 1   
    71   65   67 2   
    72   66   72 1   
    73   66   73 1   
    74   74   75 1   
    75   74   78 1   
    76   75   76 1   
    77   75   79 1   
    78   75   80 1   
    79   76   77 2   
    80   76   81 1   
    81   81   82 1   
    82   81   93 1   
    83   82   83 1   
    84   82   85 1   
    85   82   94 1   
    86   83   84 2   
    87   83  102 1   
    88   85   86 1   
    89   85   95 1   
    90   85   96 1   
    91   86   87 ar  
    92   86   88 ar  
    93   87   89 ar  
    94   87   97 1   
    95   88   90 ar  
    96   88   98 1   
    97   89   91 ar  
    98   89   99 1   
    99   90   91 ar  
   100   90  100 1   
   101   91   92 1   
   102   92  101 1   
   103  102  103 1   
   104  102  110 1   
   105  103  104 1   
   106  103  106 1   
   107  103  111 1   
   108  104  105 2   
   109  104  121 1   
   110  106  107 1   
   111  106  108 1   
   112  106  112 1   
   113  107  109 1   
   114  107  113 1   
   115  107  114 1   
   116  108  115 1   
   117  108  116 1   
   118  108  117 1   
   119  109  118 1   
   120  109  119 1   
   121  109  120 1   
   122  121  122 1   
   123  121  127 1   
   124  122  123 1   
   125  122  125 1   
   126  122  128 1   
   127  123  124 2   
   128  123  132 1   
   129  125  126 1   
   130  125  129 1   
   131  125  130 1   
   132  126  131 1   
   133  132  133 1   
   134  132  137 1   
   135  133  134 1   
   136  133  136 1   
   137  133  138 1   
   138  134  135 2   
   139  134  142 1   
   140  136  139 1   
   141  136  140 1   
   142  136  141 1   
   143  142  143 1   
   144  142  147 1   
   145  143  144 1   
   146  143  146 1   
   147  143  148 1   
   148  144  145 2   
   149  144  152 1   
   150  146  149 1   
   151  146  150 1   
   152  146  151 1   
   153  152  153 1   
   154  152  161 1   
   155  153  154 1   
   156  153  156 1   
   157  153  162 1   
   158  154  155 2   
   159  154  167 1   
   160  156  157 1   
   161  156  163 1   
   162  156  164 1   
   163  157  158 1   
   164  157  165 1   
   165  157  166 1   
   166  158  159 1   
   167  158  160 1   
   168  167  168 1   
   169  167  172 1   
   170  168  169 1   
   171  168  170 1   
   172  168  171 1   
   173  174  175 1   
   174  174  176 1   
   175  177  178 1   
   176  177  179 1   
   177  180  181 1   
   178  180  182 1   
   179  183  184 1   
   180  183  185 1   
   181  186  187 1   
   182  186  188 1   
@<TRIPOS>SUBSTRUCTURE
     1 MOL         1 TEMP              0 ****  ****    0 ROOT
