@<TRIPOS>MOLECULE
MOL
  192   187     1     0     0
SMALL
resp


@<TRIPOS>ATOM
      1 C1          9.5440   -0.2530    1.8450 c3        1 MOL     -0.546897
      2 C2          8.3030   -0.2760    0.9770 c         1 MOL      0.899763
      3 O1          7.2030   -0.0070    1.3770 o         1 MOL     -0.692950
      4 H1         10.2390    0.4960    1.4660 hc        1 MOL      0.134611
      5 H2          9.2660   -0.0050    2.8700 hc        1 MOL      0.134611
      6 H3         10.0210   -1.2330    1.8240 hc        1 MOL      0.134611
      7 N1          8.4170   -0.6500   -0.2900 n         1 MOL     -0.822799
      8 C3          7.3710   -0.7130   -1.3060 c3        1 MOL      0.273584
      9 C4          6.6970   -2.0980   -1.2800 c         1 MOL      0.455843
     10 O2          6.7380   -2.9020   -2.2430 o         1 MOL     -0.516594
     11 C5          7.9260   -0.3430   -2.7070 c3        1 MOL     -0.351644
     12 C6          8.7790    0.9480   -2.7590 c         1 MOL      0.769116
     13 O3          9.5330    1.1540   -3.7420 o         1 MOL     -0.648962
     14 O4          8.6550    1.8490   -1.8650 o         1 MOL     -0.648962
     15 H4          9.3840   -0.6740   -0.6030 hn        1 MOL      0.367777
     16 H5          6.5480   -0.0160   -1.1180 h1        1 MOL      0.069191
     17 H6          7.1640   -0.1300   -3.4520 hc        1 MOL      0.094264
     18 H7          8.5750   -1.1700   -2.9870 hc        1 MOL      0.094264
     19 N2          6.2760   -2.5520   -0.1040 n         1 MOL     -0.198534
     20 C7          5.7840   -3.9700    0.1970 c3        1 MOL      0.011001
     21 C8          4.3720   -4.1260   -0.3530 c         1 MOL      0.534690
     22 O5          4.0550   -5.0730   -1.1170 o         1 MOL     -0.541167
     23 C9          6.0350   -4.3990    1.6160 c3        1 MOL     -0.113619
     24 C10         7.5520   -4.6280    1.9470 c3        1 MOL      0.033024
     25 C11         7.6820   -4.9140    3.4760 c3        1 MOL      0.084486
     26 C12         9.1330   -5.1550    3.7840 c3        1 MOL      0.041553
     27 N3          9.2150   -5.2220    5.2720 n4        1 MOL     -0.167478
     28 H8          6.3560   -1.9140    0.6740 hn        1 MOL      0.186931
     29 H9          6.3120   -4.6280   -0.4820 h1        1 MOL      0.077411
     30 H10         5.4830   -5.3380    1.6370 hc        1 MOL      0.050957
     31 H11         5.5380   -3.7560    2.3440 hc        1 MOL      0.050957
     32 H12         8.0770   -3.6780    1.8260 hc        1 MOL      0.004283
     33 H13         7.9630   -5.4230    1.3220 hc        1 MOL      0.004283
     34 H14         7.1140   -5.7920    3.7920 hc        1 MOL     -0.009555
     35 H15         7.2410   -4.0710    3.9970 hc        1 MOL     -0.009555
     36 H16         9.7070   -4.3010    3.4090 hx        1 MOL      0.063066
     37 H17         9.4350   -6.0860    3.3080 hx        1 MOL      0.063066
     38 H18        10.1630   -5.3750    5.5780 hn        1 MOL      0.219882
     39 H19         8.7870   -4.3960    5.6630 hn        1 MOL      0.219882
     40 H20         8.6500   -5.9540    5.6550 hn        1 MOL      0.219882
     41 N4          3.3910   -3.2230   -0.1740 n         1 MOL     -0.486198
     42 C13         3.4610   -2.0040    0.6310 c3        1 MOL      0.160754
     43 C14         3.5610   -0.7270   -0.1720 c         1 MOL      0.084868
     44 O6          3.4470   -0.6480   -1.4110 o         1 MOL     -0.400978
     45 C15         2.2660   -1.9240    1.5960 c3        1 MOL     -0.201378
     46 C16         0.9430   -2.0380    0.9690 c         1 MOL      0.642730
     47 O7          0.6090   -1.1960    0.0910 o         1 MOL     -0.636191
     48 O8          0.1640   -2.9480    1.4360 o         1 MOL     -0.636191
     49 H21         2.5670   -3.3000   -0.7440 hn        1 MOL      0.382793
     50 H22         4.3320   -2.0370    1.2960 h1        1 MOL      0.051623
     51 H23         2.3420   -1.0410    2.2300 hc        1 MOL      0.035875
     52 H24         2.4520   -2.8100    2.2080 hc        1 MOL      0.035875
     53 N5          4.0910    0.2970    0.4970 n         1 MOL     -0.096658
     54 C17         4.4060    1.6370   -0.0220 c3        1 MOL      0.052637
     55 C18         3.1620    2.3750   -0.6100 c         1 MOL      0.307562
     56 O9          1.9980    2.0910   -0.3250 o         1 MOL     -0.478983
     57 H25         4.2520    0.1490    1.4850 hn        1 MOL      0.222303
     58 H26         5.2820    1.7150   -0.6670 h1        1 MOL      0.069139
     59 H27         4.7010    2.1860    0.8710 h1        1 MOL      0.069139
     60 N6          3.4830    3.4830   -1.2530 n         1 MOL     -0.343904
     61 C19         2.5410    4.5970   -1.7150 c3        1 MOL      0.328437
     62 C20         3.1900    5.9760   -1.5960 c         1 MOL      0.342598
     63 O10         4.3790    6.1510   -1.7390 o         1 MOL     -0.497461
     64 C21         2.0770    4.2860   -3.2160 c3        1 MOL     -0.358550
     65 C22         1.6720    2.8790   -3.3980 c         1 MOL      0.694902
     66 O11         0.6090    2.5360   -2.7880 o         1 MOL     -0.632607
     67 O12         2.4460    2.0770   -4.0250 o         1 MOL     -0.632607
     68 H28         4.4690    3.7100   -1.3010 hn        1 MOL      0.256356
     69 H29         1.7580    4.5480   -0.9570 h1        1 MOL      0.044864
     70 H30         2.9750    4.4330   -3.8050 hc        1 MOL      0.081905
     71 H31         1.2710    4.9030   -3.6160 hc        1 MOL      0.081905
     72 N7          2.4700    7.0770   -1.5310 n         1 MOL     -0.275081
     73 C23         0.9770    7.1980   -1.5470 c3        1 MOL     -0.222438
     74 C24         0.1350    6.4990   -0.3870 c         1 MOL      0.567485
     75 O13         0.6540    6.5250    0.7260 o         1 MOL     -0.484884
     76 H32         2.9130    7.9840   -1.5600 hn        1 MOL      0.303460
     77 H33         0.5410    6.8960   -2.4920 h1        1 MOL      0.086550
     78 H34         0.7560    8.2590   -1.4410 h1        1 MOL      0.086550
     79 N8         -0.9770    5.8610   -0.7030 n         1 MOL     -0.371264
     80 C25        -1.9550    5.1450    0.0500 c3        1 MOL     -0.325787
     81 C26        -1.4460    3.8750    0.6860 c         1 MOL      0.164996
     82 O14        -0.8530    3.0270    0.0540 o         1 MOL     -0.398198
     83 C27        -3.2730    4.7620   -0.6830 c3        1 MOL      0.492523
     84 C28        -4.3280    4.1480    0.3100 c3        1 MOL     -0.544336
     85 O15        -3.0120    3.8120   -1.6960 oh        1 MOL     -0.681488
     86 H35        -1.2140    5.9080   -1.6820 hn        1 MOL      0.280632
     87 H36        -2.2150    5.8410    0.8480 h1        1 MOL      0.180855
     88 H37        -3.6560    5.6870   -1.1340 h1        1 MOL      0.018503
     89 H38        -2.5540    4.1390   -2.4820 ho        1 MOL      0.416235
     90 H39        -4.8270    4.9640    0.8220 hc        1 MOL      0.160826
     91 H40        -5.1420    3.6540   -0.2120 hc        1 MOL      0.160826
     92 H41        -3.9000    3.4020    0.9870 hc        1 MOL      0.160826
     93 N9         -1.4680    3.7720    2.0650 n         1 MOL     -0.152543
     94 C29        -0.9910    2.5620    2.8960 c3        1 MOL     -0.391201
     95 C30        -1.6840    1.2870    2.4990 c         1 MOL      0.766153
     96 O16        -1.4060    0.7840    1.4470 o         1 MOL     -0.460567
     97 C31         0.5670    2.4080    2.8650 c3        1 MOL      0.632306
     98 C32         1.4200    3.7070    2.9820 c3        1 MOL      0.000499
     99 C33         1.1810    1.3130    3.8580 c3        1 MOL     -0.585354
    100 C34         1.1130    4.5610    4.2520 c3        1 MOL     -0.124212
    101 H42        -2.0200    4.4250    2.5920 hn        1 MOL      0.242226
    102 H43        -1.2500    2.6680    3.9550 h1        1 MOL      0.090394
    103 H44         0.8120    2.0910    1.8470 hc        1 MOL     -0.205643
    104 H45         1.2990    4.3010    2.0710 hc        1 MOL      0.014333
    105 H46         2.4520    3.3780    3.0850 hc        1 MOL      0.014333
    106 H47         2.1610    1.0780    3.4320 hc        1 MOL      0.130945
    107 H48         1.1270    1.5960    4.9110 hc        1 MOL      0.130945
    108 H49         0.6500    0.3790    3.6650 hc        1 MOL      0.130945
    109 H50         1.2160    3.8370    5.0650 hc        1 MOL      0.014343
    110 H51         1.8270    5.3820    4.2860 hc        1 MOL      0.014343
    111 H52         0.0780    4.8860    4.2860 hc        1 MOL      0.014343
    112 N10        -2.5790    0.6600    3.3100 n         1 MOL     -0.622945
    113 C35        -3.0910   -0.6830    3.0000 c3        1 MOL     -0.007395
    114 C36        -4.5620   -0.8850    3.0370 c         1 MOL      0.363257
    115 O17        -4.9820   -2.0080    3.1220 o         1 MOL     -0.533897
    116 C37        -2.3040   -1.8110    3.8040 c3        1 MOL      0.623999
    117 C38        -2.5710   -1.8600    5.2760 c3        1 MOL     -0.341716
    118 O18        -0.9840   -1.8730    3.5790 oh        1 MOL     -0.639426
    119 H53        -2.6840    0.9440    4.2780 hn        1 MOL      0.298724
    120 H54        -2.9250   -0.9410    1.9470 h1        1 MOL      0.076347
    121 H55        -2.6400   -2.7780    3.4570 h1        1 MOL     -0.038535
    122 H56        -0.9060   -2.3260    2.7340 ho        1 MOL      0.355008
    123 H57        -3.4880   -2.4250    5.4460 hc        1 MOL      0.066685
    124 H58        -1.7850   -2.4150    5.7800 hc        1 MOL      0.066685
    125 H59        -2.5820   -0.8450    5.6760 hc        1 MOL      0.066685
    126 N11        -5.3870    0.2040    2.9440 n         1 MOL     -0.208361
    127 C39        -6.8450    0.2120    2.6990 c3        1 MOL      0.060727
    128 C40        -7.1330   -0.3050    1.3060 c         1 MOL      0.593198
    129 O19        -7.5260    0.3780    0.3830 o         1 MOL     -0.524447
    130 C41        -7.5090    1.6140    2.9020 c3        1 MOL      0.222191
    131 C42        -7.9080    1.9000    4.3040 c3        1 MOL     -0.013479
    132 O20        -6.6520    2.7070    2.5600 oh        1 MOL     -0.661846
    133 H60        -4.9000    1.0840    2.8720 hn        1 MOL      0.216569
    134 H61        -7.3150   -0.5390    3.3280 h1        1 MOL      0.057334
    135 H62        -8.4040    1.6620    2.2840 h1        1 MOL      0.018406
    136 H63        -7.0890    3.5520    2.6880 ho        1 MOL      0.438226
    137 H64        -8.8060    1.3560    4.5970 hc        1 MOL     -0.008511
    138 H65        -7.0860    1.4710    4.8730 hc        1 MOL     -0.008511
    139 H66        -8.0380    2.9690    4.4990 hc        1 MOL     -0.008511
    140 N12        -6.8870   -1.6000    1.0440 n         1 MOL     -0.781715
    141 C43        -6.7240   -2.3840   -0.2100 c3        1 MOL      0.356209
    142 C44        -5.3710   -2.0020   -0.8710 c         1 MOL      0.477588
    143 O21        -4.8800   -0.8960   -0.5680 o         1 MOL     -0.427160
    144 C45        -7.9360   -2.2810   -1.1900 c3        1 MOL     -0.265849
    145 C46        -9.2920   -2.4010   -0.5110 c3        1 MOL     -0.001687
    146 C47       -10.4090   -2.4710   -1.5300 c3        1 MOL      0.131014
    147 C48       -11.7990   -2.2830   -0.8120 c3        1 MOL      0.008743
    148 N13       -12.9110   -2.4170   -1.8290 n4        1 MOL     -0.128166
    149 H67        -6.3560   -2.0280    1.7910 hn        1 MOL      0.357183
    150 H68        -6.7210   -3.4490    0.0260 h1        1 MOL      0.016565
    151 H69        -7.8910   -3.0880   -1.9190 hc        1 MOL      0.081864
    152 H70        -7.8620   -1.3660   -1.7740 hc        1 MOL      0.081864
    153 H71        -9.4440   -1.5170    0.1200 hc        1 MOL      0.036882
    154 H72        -9.3220   -3.2990    0.0990 hc        1 MOL      0.036882
    155 H73       -10.3760   -3.4070   -2.0850 hc        1 MOL     -0.013971
    156 H74       -10.4090   -1.7110   -2.3140 hc        1 MOL     -0.013971
    157 H75       -11.8420   -1.3470   -0.2600 hx        1 MOL      0.055144
    158 H76       -11.8480   -3.1650   -0.1690 hx        1 MOL      0.055144
    159 H77       -12.7060   -1.8020   -2.6020 hn        1 MOL      0.194276
    160 H78       -12.9220   -3.3580   -2.2050 hn        1 MOL      0.194276
    161 H79       -13.7960   -2.1780   -1.4170 hn        1 MOL      0.194276
    162 N14        -4.7640   -2.8230   -1.7370 n         1 MOL     -0.668910
    163 C49        -3.4660   -2.5910   -2.3830 c3        1 MOL      0.375328
    164 C50        -2.3770   -2.3140   -1.4000 c         1 MOL      0.248327
    165 O22        -1.6630   -1.3330   -1.5830 o         1 MOL     -0.516438
    166 C51        -3.0750   -3.8200   -3.2100 c3        1 MOL      0.148844
    167 C52        -3.7990   -3.9410   -4.5500 c3        1 MOL     -0.137893
    168 C53        -3.1440   -5.0080   -5.4080 c         1 MOL      0.657994
    169 O23        -3.4820   -6.2360   -5.2480 o         1 MOL     -0.618590
    170 O24        -2.2180   -4.6880   -6.1620 o         1 MOL     -0.618590
    171 H80        -5.3610   -3.5390   -2.1500 hn        1 MOL      0.340149
    172 H81        -3.5360   -1.6930   -3.0090 h1        1 MOL      0.011370
    173 H82        -3.1670   -4.7550   -2.6700 hc        1 MOL      0.001115
    174 H83        -2.0160   -3.6160   -3.4190 hc        1 MOL      0.001115
    175 H84        -3.9310   -2.9680   -5.0300 hc        1 MOL     -0.031811
    176 H85        -4.8190   -4.2700   -4.3300 hc        1 MOL     -0.031811
    177 N15        -2.0450   -3.1550   -0.3470 n         1 MOL     -0.197694
    178 C54        -2.5280   -4.4780   -0.0710 c3        1 MOL      0.033572
    179 H86        -3.4180   -4.6720   -0.6700 h1        1 MOL     -0.000090
    180 H87        -1.7560   -5.2070   -0.3210 h1        1 MOL     -0.000090
    181 H88        -2.7770   -4.5600    0.9870 h1        1 MOL     -0.000090
    182 H89        -1.4000   -2.8950    0.3880 hn        1 MOL      0.261332
    183 Ca1        -0.3760    0.8640   -1.1660 Ca        1 MOL      1.686031
    184 O25        -1.4460    0.8710   -3.6560 oh        1 MOL     -0.841091
    185 H90        -2.3970    0.8610   -3.6060 ho        1 MOL      0.401006
    186 H91        -1.2550    1.4470   -4.3990 ho        1 MOL      0.401006
    187 O26        -3.0130    1.1160   -0.8930 oh        1 MOL     -0.841091
    188 H92        -3.7140    0.4650   -0.9070 ho        1 MOL      0.401006
    189 H93        -3.4700    1.9630   -0.8940 ho        1 MOL      0.401006
    190 O27         1.4910   -0.2080   -2.8310 oh        1 MOL     -0.841091
    191 H94         2.1610   -0.5810   -2.2480 ho        1 MOL      0.401006
    192 H95         1.8730    0.6150   -3.1310 ho        1 MOL      0.401006
@<TRIPOS>BOND
     1    1    2 1   
     2    1    4 1   
     3    1    5 1   
     4    1    6 1   
     5    2    3 2   
     6    2    7 1   
     7    7    8 1   
     8    7   15 1   
     9    8    9 1   
    10    8   11 1   
    11    8   16 1   
    12    9   10 2   
    13    9   19 1   
    14   11   12 1   
    15   11   17 1   
    16   11   18 1   
    17   12   13 1   
    18   12   14 1   
    19   19   20 1   
    20   19   28 1   
    21   20   21 1   
    22   20   23 1   
    23   20   29 1   
    24   21   22 2   
    25   21   41 1   
    26   23   24 1   
    27   23   30 1   
    28   23   31 1   
    29   24   25 1   
    30   24   32 1   
    31   24   33 1   
    32   25   26 1   
    33   25   34 1   
    34   25   35 1   
    35   26   27 1   
    36   26   36 1   
    37   26   37 1   
    38   27   38 1   
    39   27   39 1   
    40   27   40 1   
    41   41   42 1   
    42   41   49 1   
    43   42   43 1   
    44   42   45 1   
    45   42   50 1   
    46   43   44 2   
    47   43   53 1   
    48   45   46 1   
    49   45   51 1   
    50   45   52 1   
    51   46   47 1   
    52   46   48 1   
    53   53   54 1   
    54   53   57 1   
    55   54   55 1   
    56   54   58 1   
    57   54   59 1   
    58   55   56 2   
    59   55   60 1   
    60   60   61 1   
    61   60   68 1   
    62   61   62 1   
    63   61   64 1   
    64   61   69 1   
    65   62   63 2   
    66   62   72 1   
    67   64   65 1   
    68   64   70 1   
    69   64   71 1   
    70   65   66 1   
    71   65   67 1   
    72   72   73 1   
    73   72   76 1   
    74   73   74 1   
    75   73   77 1   
    76   73   78 1   
    77   74   75 2   
    78   74   79 1   
    79   79   80 1   
    80   79   86 1   
    81   80   81 1   
    82   80   83 1   
    83   80   87 1   
    84   81   82 2   
    85   81   93 1   
    86   83   84 1   
    87   83   85 1   
    88   83   88 1   
    89   84   90 1   
    90   84   91 1   
    91   84   92 1   
    92   85   89 1   
    93   93   94 1   
    94   93  101 1   
    95   94   95 1   
    96   94   97 1   
    97   94  102 1   
    98   95   96 2   
    99   95  112 1   
   100   97   98 1   
   101   97   99 1   
   102   97  103 1   
   103   98  100 1   
   104   98  104 1   
   105   98  105 1   
   106   99  106 1   
   107   99  107 1   
   108   99  108 1   
   109  100  109 1   
   110  100  110 1   
   111  100  111 1   
   112  112  113 1   
   113  112  119 1   
   114  113  114 1   
   115  113  116 1   
   116  113  120 1   
   117  114  115 2   
   118  114  126 1   
   119  116  117 1   
   120  116  118 1   
   121  116  121 1   
   122  117  123 1   
   123  117  124 1   
   124  117  125 1   
   125  118  122 1   
   126  126  127 1   
   127  126  133 1   
   128  127  128 1   
   129  127  130 1   
   130  127  134 1   
   131  128  129 2   
   132  128  140 1   
   133  130  131 1   
   134  130  132 1   
   135  130  135 1   
   136  131  137 1   
   137  131  138 1   
   138  131  139 1   
   139  132  136 1   
   140  140  141 1   
   141  140  149 1   
   142  141  142 1   
   143  141  144 1   
   144  141  150 1   
   145  142  143 2   
   146  142  162 1   
   147  144  145 1   
   148  144  151 1   
   149  144  152 1   
   150  145  146 1   
   151  145  153 1   
   152  145  154 1   
   153  146  147 1   
   154  146  155 1   
   155  146  156 1   
   156  147  148 1   
   157  147  157 1   
   158  147  158 1   
   159  148  159 1   
   160  148  160 1   
   161  148  161 1   
   162  162  163 1   
   163  162  171 1   
   164  163  164 1   
   165  163  166 1   
   166  163  172 1   
   167  164  165 2   
   168  164  177 1   
   169  166  167 1   
   170  166  173 1   
   171  166  174 1   
   172  167  168 1   
   173  167  175 1   
   174  167  176 1   
   175  168  169 1   
   176  168  170 1   
   177  177  178 1   
   178  177  182 1   
   179  178  179 1   
   180  178  180 1   
   181  178  181 1   
   182  184  185 1   
   183  184  186 1   
   184  187  188 1   
   185  187  189 1   
   186  190  191 1   
   187  190  192 1   
@<TRIPOS>SUBSTRUCTURE
     1 MOL         1 TEMP              0 ****  ****    0 ROOT
