@<TRIPOS>MOLECULE
MOL
  185   180     1     0     0
SMALL
resp


@<TRIPOS>ATOM
      1 C1         -2.2600   -4.4820    4.8980 c3        1 MOL     -0.401857
      2 C2         -1.8410   -4.0830    3.4410 c         1 MOL      0.650622
      3 O1         -2.4270   -4.4360    2.3780 o         1 MOL     -0.552174
      4 H1         -1.3930   -4.4150    5.5560 hc        1 MOL      0.118407
      5 H2         -3.0370   -3.8040    5.2520 hc        1 MOL      0.118407
      6 H3         -2.6390   -5.5040    4.9020 hc        1 MOL      0.118407
      7 N1         -0.6450   -3.4190    3.3590 n         1 MOL     -0.517445
      8 C3          0.1190   -3.1330    2.1300 c3        1 MOL      0.045000
      9 C4          0.5430   -4.4120    1.3060 c         1 MOL      0.698187
     10 O2          0.9310   -5.4610    1.9490 o         1 MOL     -0.554847
     11 C5          1.3210   -2.3120    2.5050 c3        1 MOL     -0.372235
     12 C6          1.9260   -1.6360    1.3140 c         1 MOL      0.706368
     13 O3          2.9320   -0.9060    1.4240 o         1 MOL     -0.743439
     14 O4          1.4820   -1.8610    0.1590 o         1 MOL     -0.743439
     15 H4         -0.3420   -3.0670    4.2660 hn        1 MOL      0.287926
     16 H5         -0.5170   -2.5320    1.4870 h1        1 MOL      0.065538
     17 H6          2.0990   -3.0030    2.8000 hc        1 MOL      0.131087
     18 H7          0.9880   -1.6890    3.3350 hc        1 MOL      0.131087
     19 N2          0.5180   -4.2930   -0.0360 n         1 MOL     -0.511352
     20 C7          0.8830   -5.3150   -1.0660 c3        1 MOL      0.038047
     21 C8          2.3430   -5.5250   -1.3860 c         1 MOL      0.415760
     22 O5          2.7360   -6.5110   -2.0820 o         1 MOL     -0.534713
     23 C9          0.1340   -4.9690   -2.3530 c3        1 MOL     -0.121852
     24 C10         0.5820   -3.6810   -3.0080 c3        1 MOL      0.139745
     25 C11        -0.1370   -3.4630   -4.3520 c3        1 MOL     -0.152808
     26 C12        -1.5880   -3.1000   -3.9980 c3        1 MOL      0.228907
     27 N3         -2.4740   -3.0680   -5.1740 n4        1 MOL     -0.612787
     28 H8          0.4390   -3.3630   -0.4110 hn        1 MOL      0.236277
     29 H9          0.4910   -6.2750   -0.7610 h1        1 MOL      0.119976
     30 H10        -0.9230   -4.9220   -2.0800 hc        1 MOL      0.047261
     31 H11         0.2840   -5.8120   -3.0240 hc        1 MOL      0.047261
     32 H12         1.6370   -3.7990   -3.2460 hc        1 MOL      0.052065
     33 H13         0.4080   -2.8340   -2.3460 hc        1 MOL      0.052065
     34 H14        -0.1720   -4.3530   -4.9730 hc        1 MOL      0.032573
     35 H15         0.2980   -2.6230   -4.8970 hc        1 MOL      0.032573
     36 H16        -1.5740   -2.1440   -3.4700 hx        1 MOL      0.035332
     37 H17        -1.9430   -3.8090   -3.2510 hx        1 MOL      0.035332
     38 H18        -2.4220   -3.9780   -5.6200 hn        1 MOL      0.387073
     39 H19        -3.4140   -2.8960   -4.8620 hn        1 MOL      0.387073
     40 H20        -2.2240   -2.2970   -5.7800 hn        1 MOL      0.387073
     41 N4          3.1780   -4.6120   -0.9130 n         1 MOL     -0.150042
     42 C13         4.5940   -4.6770   -1.1700 c3        1 MOL     -0.160052
     43 C14         5.5330   -4.2110   -0.0080 c         1 MOL      0.432476
     44 O6          6.7710   -4.2720   -0.1490 o         1 MOL     -0.490113
     45 C15         4.9500   -3.9040   -2.4480 c3        1 MOL     -0.198824
     46 C16         4.6820   -2.3820   -2.3720 c         1 MOL      0.607098
     47 O7          4.0930   -1.7820   -1.4280 o         1 MOL     -0.702379
     48 O8          5.1810   -1.7200   -3.3330 o         1 MOL     -0.702379
     49 H21         2.7700   -3.8220   -0.4260 hn        1 MOL      0.041820
     50 H22         4.9050   -5.7130   -1.3400 h1        1 MOL      0.155854
     51 H23         4.4430   -4.3700   -3.3030 hc        1 MOL      0.109370
     52 H24         5.9800   -4.1420   -2.6860 hc        1 MOL      0.109370
     53 N5          4.9730   -3.7980    1.1330 n         1 MOL     -0.211457
     54 C17         5.7420   -3.1250    2.1620 c3        1 MOL     -0.213695
     55 C18         6.4840   -1.9170    1.7310 c         1 MOL      0.540833
     56 O9          7.5360   -1.6570    2.3540 o         1 MOL     -0.559761
     57 H25         3.9780   -3.8630    1.2550 hn        1 MOL      0.233293
     58 H26         6.4650   -3.8770    2.4630 h1        1 MOL      0.118289
     59 H27         5.0850   -2.8230    2.9800 h1        1 MOL      0.118289
     60 N6          6.0550   -1.1420    0.7820 n         1 MOL     -0.367471
     61 C19         6.7490    0.1050    0.3660 c3        1 MOL      0.266860
     62 C20         5.8210    1.2200   -0.0850 c         1 MOL      0.339878
     63 O10         4.7370    0.9930   -0.5130 o         1 MOL     -0.523334
     64 C21         7.8110   -0.2550   -0.6840 c3        1 MOL     -0.391966
     65 C22         8.6300    0.9560   -1.0720 c         1 MOL      0.704954
     66 N7          8.4440    1.4200   -2.2870 n         1 MOL     -0.781605
     67 O11         9.2230    1.5370   -0.2030 o         1 MOL     -0.565320
     68 H28         5.1630   -1.4180    0.4000 hn        1 MOL      0.380500
     69 H29         7.3530    0.5070    1.1870 h1        1 MOL      0.024493
     70 H30         7.3050   -0.6510   -1.5730 hc        1 MOL      0.138130
     71 H31         8.5040   -0.9650   -0.2240 hc        1 MOL      0.138130
     72 H32         8.0040    0.8720   -3.0160 hn        1 MOL      0.351482
     73 H33         8.9340    2.2510   -2.5710 hn        1 MOL      0.351482
     74 N8          6.3480    2.4030   -0.2570 n         1 MOL     -0.285237
     75 C23         5.6850    3.6670   -0.4610 c3        1 MOL     -0.232788
     76 C24         4.4950    3.7650    0.4480 c         1 MOL      0.659762
     77 O12         4.4870    3.3600    1.6030 o         1 MOL     -0.489576
     78 H34         7.3280    2.5170   -0.0440 hn        1 MOL      0.297451
     79 H35         5.3370    3.7110   -1.4940 h1        1 MOL      0.106428
     80 H36         6.3970    4.4540   -0.2370 h1        1 MOL      0.106428
     81 N9          3.3910    4.2610   -0.1340 n         1 MOL     -0.548070
     82 C25         2.1270    4.3330    0.5270 c3        1 MOL      0.064376
     83 C26         1.4640    3.0790    1.1220 c         1 MOL      0.345464
     84 O13         1.6610    1.9610    0.7180 o         1 MOL     -0.356067
     85 C27         1.0770    4.9430   -0.3980 c3        1 MOL      0.017960
     86 C28         1.3440    6.3700   -0.9390 ca        1 MOL      0.058175
     87 C29         1.5520    7.3470   -0.0170 ca        1 MOL     -0.158556
     88 C30         1.2130    6.6800   -2.2470 ca        1 MOL     -0.158556
     89 C31         1.6550    8.6690   -0.4610 ca        1 MOL     -0.222223
     90 C32         1.5020    7.9480   -2.7060 ca        1 MOL     -0.222223
     91 C33         1.6900    9.0050   -1.8090 ca        1 MOL      0.310444
     92 O14         1.9520   10.3220   -2.1850 oh        1 MOL     -0.476726
     93 H37         3.3390    4.3720   -1.1310 hn        1 MOL      0.261512
     94 H38         2.2960    4.9290    1.4320 h1        1 MOL      0.111318
     95 H39         0.1320    5.0000    0.1340 hc        1 MOL     -0.013033
     96 H40         0.9450    4.3310   -1.2920 hc        1 MOL     -0.013033
     97 H41         1.6620    7.2550    1.0510 ha        1 MOL      0.120127
     98 H42         0.9620    5.8810   -2.9370 ha        1 MOL      0.120127
     99 H43         1.8210    9.4560    0.2750 ha        1 MOL      0.142760
    100 H44         1.4970    8.1450   -3.7690 ha        1 MOL      0.142760
    101 H45         1.9920   10.4700   -3.1310 ho        1 MOL      0.368894
    102 N10         0.5480    3.3900    2.0850 n         1 MOL     -0.457540
    103 C34         0.0020    2.4690    3.0860 c3        1 MOL      0.029775
    104 C35        -0.9530    1.3620    2.5430 c         1 MOL      0.445458
    105 O15        -0.7360    0.7120    1.4700 o         1 MOL     -0.444407
    106 C36         0.9680    1.8820    4.1400 c3        1 MOL      0.140671
    107 C37         0.3000    1.4220    5.4800 c3        1 MOL      0.032587
    108 C38         2.1190    2.8800    4.4730 c3        1 MOL     -0.044926
    109 C39         1.1930    0.7430    6.4990 c3        1 MOL     -0.081008
    110 H46         0.3890    4.3750    2.2110 hn        1 MOL      0.303955
    111 H47        -0.6150    3.1640    3.6610 h1        1 MOL      0.020334
    112 H48         1.3180    0.9750    3.6260 hc        1 MOL      0.002821
    113 H49        -0.5590    0.7820    5.2990 hc        1 MOL     -0.032340
    114 H50        -0.0540    2.2770    6.0650 hc        1 MOL     -0.032340
    115 H51         3.0060    2.3910    4.8670 hc        1 MOL      0.020395
    116 H52         2.3940    3.5450    3.6550 hc        1 MOL      0.020395
    117 H53         1.7700    3.6150    5.1930 hc        1 MOL      0.020395
    118 H54         2.0540    1.3680    6.7480 hc        1 MOL      0.028992
    119 H55         0.6370    0.5410    7.4200 hc        1 MOL      0.028992
    120 H56         1.5430   -0.2030    6.0930 hc        1 MOL      0.028992
    121 N11        -2.0820    1.1840    3.1650 n         1 MOL     -0.254901
    122 C40        -2.9900    0.0290    3.0350 c3        1 MOL     -0.385784
    123 C41        -3.7670   -0.0940    1.6850 c         1 MOL      0.512084
    124 O16        -4.5680   -1.0140    1.5280 o         1 MOL     -0.511768
    125 C42        -3.9360   -0.0530    4.2610 c3        1 MOL      0.346172
    126 O17        -3.2880    0.0210    5.4840 oh        1 MOL     -0.599127
    127 H57        -2.4220    1.9810    3.6830 hn        1 MOL      0.236951
    128 H58        -2.4180   -0.8880    3.1340 h1        1 MOL      0.232622
    129 H59        -4.6520   -0.8630    4.1730 h1        1 MOL      0.033652
    130 H60        -4.6270    0.7870    4.3830 h1        1 MOL      0.033652
    131 H61        -3.0530    0.9350    5.6170 ho        1 MOL      0.380597
    132 N12        -3.5510    0.7940    0.7150 n         1 MOL     -0.312701
    133 C43        -4.3050    0.8700   -0.5340 c3        1 MOL      0.183404
    134 C44        -3.9680   -0.2760   -1.5730 c         1 MOL      0.557750
    135 O18        -2.8060   -0.3820   -1.9760 o         1 MOL     -0.613601
    136 C45        -4.0200    2.2680   -1.1640 c3        1 MOL     -0.424457
    137 H62        -2.7250    1.3630    0.7960 hn        1 MOL      0.200816
    138 H63        -5.3760    0.8420   -0.3300 h1        1 MOL      0.017528
    139 H64        -4.5530    2.9900   -0.5440 hc        1 MOL      0.126219
    140 H65        -2.9650    2.4100   -0.9260 hc        1 MOL      0.126219
    141 H66        -4.2580    2.3850   -2.2240 hc        1 MOL      0.126219
    142 N13        -4.8660   -1.1250   -1.9750 n         1 MOL     -0.505695
    143 C46        -6.3270   -1.1950   -1.5290 c3        1 MOL      0.026292
    144 C47        -7.2390    0.0130   -1.9060 c         1 MOL      0.842159
    145 O19        -6.9700    0.6460   -2.9360 o         1 MOL     -0.638539
    146 C48        -6.8430   -2.5170   -1.9690 c3        1 MOL     -0.233075
    147 H67        -4.5540   -1.7270   -2.7360 hn        1 MOL      0.284169
    148 H68        -6.3160   -1.1820   -0.4420 h1        1 MOL      0.153841
    149 H69        -7.7940   -2.8940   -1.6000 hc        1 MOL      0.070458
    150 H70        -6.6520   -2.5410   -3.0350 hc        1 MOL      0.070458
    151 H71        -6.1370   -3.2800   -1.6310 hc        1 MOL      0.070458
    152 N14        -8.2400    0.4010   -1.1490 n         1 MOL     -0.683068
    153 C49        -8.8380   -0.3690   -0.0870 c3        1 MOL      0.035208
    154 C50        -9.3660    0.5020    1.0350 c         1 MOL      0.459188
    155 O20        -9.3230    0.1270    2.2060 o         1 MOL     -0.573386
    156 C51        -9.9480   -1.2870   -0.7060 c3        1 MOL      0.189159
    157 C52       -11.3100   -0.6410   -1.0530 c3        1 MOL     -0.205160
    158 C53       -11.2260    0.5170   -2.0650 c         1 MOL      0.668965
    159 O21       -10.7450    1.6510   -1.7600 o         1 MOL     -0.665591
    160 O22       -11.6000    0.2600   -3.2390 o         1 MOL     -0.665591
    161 H72        -8.7890    1.1760   -1.4790 hn        1 MOL      0.313129
    162 H73        -8.0970   -0.9990    0.4260 h1        1 MOL      0.022339
    163 H74       -10.1250   -2.1310   -0.0410 hc        1 MOL     -0.027007
    164 H75        -9.5480   -1.6870   -1.6400 hc        1 MOL     -0.027007
    165 H76       -11.7720   -0.2410   -0.1530 hc        1 MOL      0.034323
    166 H77       -12.0370   -1.3540   -1.4360 hc        1 MOL      0.034323
    167 N15        -9.8190    1.6950    0.7340 n         1 MOL     -0.217913
    168 C54       -10.3330    2.6940    1.6520 c3        1 MOL     -0.134840
    169 H78       -11.3940    2.8520    1.4590 h1        1 MOL      0.069391
    170 H79       -10.1980    2.3490    2.6770 h1        1 MOL      0.069391
    171 H80        -9.7940    3.6300    1.5090 h1        1 MOL      0.069391
    172 H81        -9.9830    1.9430   -0.2310 hn        1 MOL      0.224217
    173 Ca1         2.4830    0.1850   -1.1310 Ca        1 MOL      1.781360
    174 O23         4.1750    0.7990   -3.3050 oh        1 MOL     -0.856402
    175 H82         4.7840    0.0610   -3.2810 ho        1 MOL      0.417866
    176 H83         4.7080    1.5500   -3.5460 ho        1 MOL      0.417866
    177 O24         1.3690   -0.5120   -3.4680 oh        1 MOL     -0.856402
    178 O25        -0.1240    0.3180   -1.0370 oh        1 MOL     -0.856402
    179 H84         0.6900   -0.1270   -4.0340 ho        1 MOL      0.417866
    180 H85        -0.8130   -0.0100   -1.6180 ho        1 MOL      0.417866
    181 H86         2.1090   -0.6740   -4.0570 ho        1 MOL      0.417866
    182 H87        -0.5510    0.3990   -0.1840 ho        1 MOL      0.417866
    183 O26         1.7410    2.3450   -2.4310 oh        1 MOL     -0.856402
    184 H88         0.8350    2.6460   -2.5050 ho        1 MOL      0.417866
    185 H89         2.2660    3.0910   -2.7330 ho        1 MOL      0.417866
@<TRIPOS>BOND
     1    1    2 1   
     2    1    4 1   
     3    1    5 1   
     4    1    6 1   
     5    2    3 2   
     6    2    7 1   
     7    7    8 1   
     8    7   15 1   
     9    8    9 1   
    10    8   11 1   
    11    8   16 1   
    12    9   10 2   
    13    9   19 1   
    14   11   12 1   
    15   11   17 1   
    16   11   18 1   
    17   12   13 1   
    18   12   14 1   
    19   19   20 1   
    20   19   28 1   
    21   20   21 1   
    22   20   23 1   
    23   20   29 1   
    24   21   22 2   
    25   21   41 1   
    26   23   24 1   
    27   23   30 1   
    28   23   31 1   
    29   24   25 1   
    30   24   32 1   
    31   24   33 1   
    32   25   26 1   
    33   25   34 1   
    34   25   35 1   
    35   26   27 1   
    36   26   36 1   
    37   26   37 1   
    38   27   38 1   
    39   27   39 1   
    40   27   40 1   
    41   41   42 1   
    42   41   49 1   
    43   42   43 1   
    44   42   45 1   
    45   42   50 1   
    46   43   44 2   
    47   43   53 1   
    48   45   46 1   
    49   45   51 1   
    50   45   52 1   
    51   46   47 1   
    52   46   48 1   
    53   53   54 1   
    54   53   57 1   
    55   54   55 1   
    56   54   58 1   
    57   54   59 1   
    58   55   56 2   
    59   55   60 1   
    60   60   61 1   
    61   60   68 1   
    62   61   62 1   
    63   61   64 1   
    64   61   69 1   
    65   62   63 2   
    66   62   74 1   
    67   64   65 1   
    68   64   70 1   
    69   64   71 1   
    70   65   66 1   
    71   65   67 2   
    72   66   72 1   
    73   66   73 1   
    74   74   75 1   
    75   74   78 1   
    76   75   76 1   
    77   75   79 1   
    78   75   80 1   
    79   76   77 2   
    80   76   81 1   
    81   81   82 1   
    82   81   93 1   
    83   82   83 1   
    84   82   85 1   
    85   82   94 1   
    86   83   84 2   
    87   83  102 1   
    88   85   86 1   
    89   85   95 1   
    90   85   96 1   
    91   86   87 ar  
    92   86   88 ar  
    93   87   89 ar  
    94   87   97 1   
    95   88   90 ar  
    96   88   98 1   
    97   89   91 ar  
    98   89   99 1   
    99   90   91 ar  
   100   90  100 1   
   101   91   92 1   
   102   92  101 1   
   103  102  103 1   
   104  102  110 1   
   105  103  104 1   
   106  103  106 1   
   107  103  111 1   
   108  104  105 2   
   109  104  121 1   
   110  106  107 1   
   111  106  108 1   
   112  106  112 1   
   113  107  109 1   
   114  107  113 1   
   115  107  114 1   
   116  108  115 1   
   117  108  116 1   
   118  108  117 1   
   119  109  118 1   
   120  109  119 1   
   121  109  120 1   
   122  121  122 1   
   123  121  127 1   
   124  122  123 1   
   125  122  125 1   
   126  122  128 1   
   127  123  124 2   
   128  123  132 1   
   129  125  126 1   
   130  125  129 1   
   131  125  130 1   
   132  126  131 1   
   133  132  133 1   
   134  132  137 1   
   135  133  134 1   
   136  133  136 1   
   137  133  138 1   
   138  134  135 2   
   139  134  142 1   
   140  136  139 1   
   141  136  140 1   
   142  136  141 1   
   143  142  143 1   
   144  142  147 1   
   145  143  144 1   
   146  143  146 1   
   147  143  148 1   
   148  144  145 2   
   149  144  152 1   
   150  146  149 1   
   151  146  150 1   
   152  146  151 1   
   153  152  153 1   
   154  152  161 1   
   155  153  154 1   
   156  153  156 1   
   157  153  162 1   
   158  154  155 2   
   159  154  167 1   
   160  156  157 1   
   161  156  163 1   
   162  156  164 1   
   163  157  158 1   
   164  157  165 1   
   165  157  166 1   
   166  158  159 1   
   167  158  160 1   
   168  167  168 1   
   169  167  172 1   
   170  168  169 1   
   171  168  170 1   
   172  168  171 1   
   173  174  175 1   
   174  174  176 1   
   175  177  179 1   
   176  177  181 1   
   177  178  180 1   
   178  178  182 1   
   179  183  184 1   
   180  183  185 1   
@<TRIPOS>SUBSTRUCTURE
     1 MOL         1 TEMP              0 ****  ****    0 ROOT
