@<TRIPOS>MOLECULE
MOL
  195   189     1     0     0
SMALL
resp


@<TRIPOS>ATOM
      1 C1         10.1890    5.7670    1.1450 c3        1 MOL     -0.380436
      2 C2          8.9350    4.9660    0.7540 c         1 MOL      0.778633
      3 O1          7.8770    5.5000    0.6540 o         1 MOL     -0.649544
      4 H1         10.7960    5.1770    1.8330 hc        1 MOL      0.096482
      5 H2         10.7710    5.9930    0.2510 hc        1 MOL      0.096482
      6 H3          9.8910    6.6960    1.6300 hc        1 MOL      0.096482
      7 N1          9.1240    3.6280    0.5960 n         1 MOL     -0.545554
      8 C3          8.0340    2.6370    0.5170 c3        1 MOL     -0.046783
      9 C4          6.9450    2.8510    1.5770 c         1 MOL      0.546040
     10 O2          7.2250    2.9570    2.7440 o         1 MOL     -0.506234
     11 C5          8.6790    1.2050    0.6460 c3        1 MOL     -0.134577
     12 C6          9.8300    0.9600   -0.2830 c         1 MOL      0.716884
     13 O3          9.6700   -0.0050   -1.0690 o         1 MOL     -0.674632
     14 O4         10.8630    1.6510   -0.2160 o         1 MOL     -0.674632
     15 H4         10.0340    3.2180    0.7590 hn        1 MOL      0.296697
     16 H5          7.6250    2.7200   -0.4930 h1        1 MOL      0.057573
     17 H6          7.9600    0.4010    0.5090 hc        1 MOL      0.036478
     18 H7          9.1730    1.1490    1.6250 hc        1 MOL      0.036478
     19 N2          5.6670    2.9800    1.2230 n         1 MOL     -0.323945
     20 C7          4.4540    3.0470    2.1360 c3        1 MOL     -0.088122
     21 C8          4.1250    1.6670    2.8620 c         1 MOL      0.530854
     22 O5          3.6440    1.7850    3.9810 o         1 MOL     -0.565614
     23 C9          3.2080    3.7600    1.3900 c3        1 MOL     -0.199594
     24 C10         3.6280    5.1430    0.8660 c3        1 MOL      0.169737
     25 C11         2.4150    5.8680    0.2920 c3        1 MOL     -0.187086
     26 C12         2.6730    7.3560    0.0620 c3        1 MOL     -0.074778
     27 N3          3.4990    7.4950   -1.1610 n4        1 MOL     -0.297078
     28 H8          5.4920    3.1150    0.2340 hn        1 MOL      0.199479
     29 H9          4.7680    3.6720    2.9730 h1        1 MOL      0.124478
     30 H10         2.3450    3.8140    2.0480 hc        1 MOL      0.117713
     31 H11         2.8790    3.0530    0.6300 hc        1 MOL      0.117713
     32 H12         4.3680    4.9740    0.0960 hc        1 MOL      0.017975
     33 H13         4.1230    5.7210    1.6590 hc        1 MOL      0.017975
     34 H14         1.7340    5.9570    1.1330 hc        1 MOL      0.087279
     35 H15         2.0670    5.4050   -0.6310 hc        1 MOL      0.087279
     36 H16         3.1640    7.7490    0.9500 hx        1 MOL      0.125888
     37 H17         1.7210    7.8530   -0.0650 hx        1 MOL      0.125888
     38 H18         4.4570    7.1860   -1.0990 hn        1 MOL      0.304447
     39 H19         3.0410    7.0690   -1.9560 hn        1 MOL      0.304447
     40 H20         3.4890    8.4690   -1.4340 hn        1 MOL      0.304447
     41 N4          4.3300    0.4340    2.4650 n         1 MOL     -0.215953
     42 C13         4.9830   -0.1250    1.3050 c3        1 MOL     -0.142428
     43 C14         5.4290   -1.6010    1.4630 c         1 MOL      0.520871
     44 O6          4.9690   -2.2670    2.3700 o         1 MOL     -0.504856
     45 C15         3.8950   -0.1350    0.1950 c3        1 MOL      0.088202
     46 C16         2.7740   -1.1110    0.5130 c         1 MOL      0.735612
     47 O7          2.6300   -2.2580    0.0630 o         1 MOL     -0.809856
     48 O8          1.7950   -0.6640    1.1440 o         1 MOL     -0.809856
     49 H21         3.9860   -0.2390    3.1360 hn        1 MOL      0.256180
     50 H22         5.7880    0.4550    0.8610 h1        1 MOL      0.065508
     51 H23         4.3020   -0.5620   -0.7250 hc        1 MOL     -0.086549
     52 H24         3.5520    0.8910    0.0530 hc        1 MOL     -0.086549
     53 N5          6.3010   -2.0690    0.5510 n         1 MOL     -0.292794
     54 C17         6.7450   -3.4720    0.4930 c3        1 MOL     -0.405999
     55 C18         6.1010   -4.3250   -0.5520 c         1 MOL      0.499059
     56 O9          6.6830   -5.2820   -1.0740 o         1 MOL     -0.486672
     57 H25         6.7810   -1.4410   -0.0800 hn        1 MOL      0.314330
     58 H26         6.4650   -3.9400    1.4420 h1        1 MOL      0.209724
     59 H27         7.7980   -3.6000    0.2400 h1        1 MOL      0.209724
     60 N6          4.7860   -4.0270   -0.7440 n         1 MOL     -0.322223
     61 C19         3.7970   -4.9430   -1.4420 c3        1 MOL      0.305313
     62 C20         4.2810   -5.3980   -2.8550 c         1 MOL      0.430408
     63 O10         4.7720   -6.4900   -3.0440 o         1 MOL     -0.494218
     64 C21         3.4030   -6.1700   -0.5930 c3        1 MOL     -0.209843
     65 C22         2.8450   -5.6640    0.7530 c         1 MOL      0.768326
     66 O11         3.4450   -5.8360    1.8160 o         1 MOL     -0.714258
     67 O12         1.7000   -5.1970    0.8110 o         1 MOL     -0.714258
     68 H28         4.4040   -3.2510   -0.2210 hn        1 MOL      0.158578
     69 H29         2.8690   -4.3910   -1.5460 h1        1 MOL     -0.020844
     70 H30         4.3420   -6.6940   -0.4310 hc        1 MOL      0.046567
     71 H31         2.6160   -6.7460   -1.0900 hc        1 MOL      0.046567
     72 N7          4.3400   -4.5190   -3.9200 n         1 MOL     -0.446072
     73 C23         3.7930   -3.1490   -3.8450 c3        1 MOL     -0.042437
     74 C24         2.2310   -3.1240   -3.9580 c         1 MOL      0.463946
     75 O13         1.6940   -3.4160   -5.0160 o         1 MOL     -0.531478
     76 H32         4.7370   -4.8390   -4.7850 hn        1 MOL      0.323026
     77 H33         4.1120   -2.5650   -4.6970 h1        1 MOL      0.063202
     78 H34         4.0680   -2.5900   -2.9520 h1        1 MOL      0.063202
     79 N8          1.5900   -2.6420   -2.8580 n         1 MOL     -0.281630
     80 C25         0.0880   -2.5490   -2.7860 c3        1 MOL     -0.171690
     81 C26        -0.2880   -1.2050   -2.0870 c         1 MOL      0.699751
     82 O14        -0.2340   -1.1100   -0.8720 o         1 MOL     -0.518396
     83 C27        -0.6730   -3.7790   -2.2840 c3        1 MOL      0.444606
     84 C28        -2.2260   -3.6640   -2.1680 c3        1 MOL     -0.516606
     85 O15        -0.1900   -4.0590   -1.0220 oh        1 MOL     -0.747377
     86 H35         2.1880   -2.5420   -2.0540 hn        1 MOL      0.287164
     87 H36        -0.3280   -2.4310   -3.7930 h1        1 MOL      0.041557
     88 H37        -0.5490   -4.7030   -2.8570 h1        1 MOL      0.046982
     89 H38        -0.4280   -4.9730   -0.8080 ho        1 MOL      0.390342
     90 H39        -2.6070   -3.8380   -3.1780 hc        1 MOL      0.131970
     91 H40        -2.5230   -4.4900   -1.5200 hc        1 MOL      0.131970
     92 H41        -2.5630   -2.6820   -1.8420 hc        1 MOL      0.131970
     93 N9         -0.4270   -0.1600   -2.9390 n         1 MOL     -0.720057
     94 C29        -0.6190    1.2850   -2.5300 c3        1 MOL      0.057708
     95 C30        -1.6870    1.6050   -1.4610 c         1 MOL      0.660601
     96 O16        -1.6900    1.1270   -0.2970 o         1 MOL     -0.496337
     97 C31         0.8100    1.9580   -2.2680 c3        1 MOL     -0.119187
     98 C32         1.7470    1.8350   -3.5900 c3        1 MOL      0.160483
     99 C33         0.6410    3.4170   -1.7500 c3        1 MOL     -0.304293
    100 C34         1.2670    2.6320   -4.8190 c3        1 MOL     -0.227019
    101 H42        -0.3760   -0.4230   -3.9120 hn        1 MOL      0.412231
    102 H43        -0.9880    1.7680   -3.4330 h1        1 MOL      0.057752
    103 H44         1.2080    1.3000   -1.4870 hc        1 MOL      0.196505
    104 H45         1.9540    0.7730   -3.7250 hc        1 MOL     -0.011229
    105 H46         2.7230    2.2360   -3.2980 hc        1 MOL     -0.011229
    106 H47         0.4830    3.4900   -0.6700 hc        1 MOL      0.057457
    107 H48         1.6050    3.9320   -1.8140 hc        1 MOL      0.057457
    108 H49        -0.1210    3.8860   -2.3590 hc        1 MOL      0.057457
    109 H50         0.2250    2.4240   -5.0230 hc        1 MOL      0.061791
    110 H51         1.3710    3.7110   -4.6540 hc        1 MOL      0.061791
    111 H52         1.7020    2.3040   -5.7710 hc        1 MOL      0.061791
    112 N10        -2.6690    2.4760   -1.7650 n         1 MOL     -0.518210
    113 C35        -3.6690    3.0030   -0.7870 c3        1 MOL      0.004922
    114 C36        -5.0930    2.9730   -1.4070 c         1 MOL      0.551271
    115 O17        -5.9210    3.6120   -0.8430 o         1 MOL     -0.527686
    116 C37        -3.2380    4.3290   -0.2480 c3        1 MOL      0.421215
    117 C38        -3.1030    5.4560   -1.3340 c3        1 MOL     -0.350774
    118 O18        -2.0650    4.1690    0.5140 oh        1 MOL     -0.645176
    119 H53        -2.6880    2.9580   -2.6550 hn        1 MOL      0.268784
    120 H54        -3.7610    2.3370    0.0760 h1        1 MOL      0.018417
    121 H55        -4.0850    4.6390    0.3680 h1        1 MOL      0.040013
    122 H56        -1.4050    3.6490    0.0480 ho        1 MOL      0.399703
    123 H57        -3.9650    5.3370   -1.9950 hc        1 MOL      0.075192
    124 H58        -3.2230    6.4220   -0.8570 hc        1 MOL      0.075192
    125 H59        -2.2040    5.3690   -1.9490 hc        1 MOL      0.075192
    126 N11        -5.2140    2.3710   -2.6260 n         1 MOL     -0.244608
    127 C39        -6.5150    1.9730   -3.1020 c3        1 MOL     -0.249484
    128 C40        -7.1280    0.9270   -2.1550 c         1 MOL      0.542564
    129 O19        -7.0510   -0.2820   -2.3250 o         1 MOL     -0.509698
    130 C41        -6.3990    1.2490   -4.4380 c3        1 MOL      0.513948
    131 C42        -6.2600    2.1900   -5.6220 c3        1 MOL     -0.279889
    132 O20        -5.2420    0.3820   -4.4910 oh        1 MOL     -0.613557
    133 H60        -4.4470    2.0530   -3.1960 hn        1 MOL      0.187870
    134 H61        -7.1570    2.8390   -3.2610 h1        1 MOL      0.107298
    135 H62        -7.2900    0.6400   -4.6100 h1        1 MOL     -0.038635
    136 H63        -5.3950   -0.2230   -3.7640 ho        1 MOL      0.378981
    137 H64        -5.3320    2.7480   -5.4910 hc        1 MOL      0.067076
    138 H65        -6.3550    1.5850   -6.5180 hc        1 MOL      0.067076
    139 H66        -7.0460    2.9370   -5.5180 hc        1 MOL      0.067076
    140 N12        -7.6490    1.5010   -1.0800 n         1 MOL     -0.550721
    141 C43        -8.0720    0.8880    0.1700 c3        1 MOL      0.078380
    142 C44        -6.9710    0.2170    0.9990 c         1 MOL      0.590829
    143 O21        -5.9910   -0.2400    0.4380 o         1 MOL     -0.471850
    144 C45        -9.2650    0.0240   -0.1670 c3        1 MOL     -0.230544
    145 C46       -10.5720    0.8800   -0.4630 c3        1 MOL      0.068098
    146 C47       -11.8070    0.0440   -0.4960 c3        1 MOL     -0.048720
    147 C48       -11.8310   -0.7610   -1.7370 c3        1 MOL      0.130335
    148 N13       -13.1170   -1.4860   -1.9580 n4        1 MOL     -0.375751
    149 H67        -7.5550    2.5090   -1.0200 hn        1 MOL      0.302612
    150 H68        -8.4050    1.6630    0.8570 h1        1 MOL      0.075652
    151 H69        -9.4240   -0.5950    0.7100 hc        1 MOL      0.096905
    152 H70        -9.1080   -0.5830   -1.0580 hc        1 MOL      0.096905
    153 H71       -10.5490    1.4590   -1.3820 hc        1 MOL      0.014278
    154 H72       -10.7720    1.5270    0.3950 hc        1 MOL      0.014278
    155 H73       -12.7050    0.6370   -0.6400 hc        1 MOL      0.025752
    156 H74       -11.7490   -0.6130    0.3760 hc        1 MOL      0.025752
    157 H75       -11.0270   -1.4760   -1.5560 hx        1 MOL      0.062744
    158 H76       -11.6280   -0.1550   -2.6180 hx        1 MOL      0.062744
    159 H77       -13.1130   -2.2250   -2.6500 hn        1 MOL      0.276119
    160 H78       -13.2660   -1.9820   -1.0920 hn        1 MOL      0.276119
    161 H79       -13.8960   -0.8750   -2.1600 hn        1 MOL      0.276119
    162 N14        -7.0720    0.1310    2.3130 n         1 MOL     -0.598229
    163 C49        -6.0130   -0.4090    3.2150 c3        1 MOL      0.339392
    164 C50        -4.6330    0.1670    3.0420 c         1 MOL      0.135653
    165 O22        -3.7080   -0.6390    2.9240 o         1 MOL     -0.443341
    166 C51        -6.4800   -0.4030    4.6800 c3        1 MOL      0.207892
    167 C52        -6.1300   -1.7380    5.3950 c3        1 MOL     -0.115255
    168 C53        -6.8510   -1.7480    6.8310 c         1 MOL      0.650424
    169 O23        -6.2950   -0.9670    7.6120 o         1 MOL     -0.645612
    170 O24        -7.8460   -2.5160    7.0580 o         1 MOL     -0.645612
    171 H80        -7.7860    0.6810    2.7630 hn        1 MOL      0.269062
    172 H81        -5.9830   -1.4710    2.9540 h1        1 MOL      0.031096
    173 H82        -7.5710   -0.4110    4.6700 hc        1 MOL     -0.066469
    174 H83        -6.1400    0.4770    5.2300 hc        1 MOL     -0.066469
    175 H84        -5.0800   -2.0010    5.3890 hc        1 MOL     -0.011278
    176 H85        -6.6770   -2.4060    4.7240 hc        1 MOL     -0.011278
    177 N15        -4.3980    1.4990    3.0520 n         1 MOL     -0.102828
    178 C54        -5.3020    2.5860    3.5640 c3        1 MOL     -0.102681
    179 H86        -5.1990    2.6630    4.6460 h1        1 MOL      0.063702
    180 H87        -5.0250    3.5350    3.1050 h1        1 MOL      0.063702
    181 H88        -6.3360    2.3480    3.3140 h1        1 MOL      0.063702
    182 H89        -3.4290    1.7800    3.0270 hn        1 MOL      0.232100
    183 Ca1         0.5850   -2.9430    1.3700 Ca        1 MOL      1.743939
    184 O25        -1.9750   -4.0490    1.3790 oh        1 MOL     -0.852549
    185 H90        -1.9730   -4.9430    1.0350 ho        1 MOL      0.422221
    186 H91        -2.8240   -3.6950    1.1170 ho        1 MOL      0.422221
    187 O26         0.0630   -3.3360    4.0410 oh        1 MOL     -0.852549
    188 H92        -0.8090   -3.0380    4.3320 ho        1 MOL      0.422221
    189 H93         0.6400   -3.1190    4.7760 ho        1 MOL      0.422221
    190 O27        -1.3540   -0.8600    1.7500 oh        1 MOL     -0.852549
    191 H94        -1.3320   -0.5800    0.8290 ho        1 MOL      0.422221
    192 H95        -2.0850   -0.3860    2.1340 ho        1 MOL      0.422221
    193 O28         2.7710   -3.5750    3.0540 oh        1 MOL     -0.852549
    194 H96         2.9150   -4.4290    2.6500 ho        1 MOL      0.422221
    195 H97         3.5610   -3.0710    2.8430 ho        1 MOL      0.422221
@<TRIPOS>BOND
     1    1    2 1   
     2    1    4 1   
     3    1    5 1   
     4    1    6 1   
     5    2    3 2   
     6    2    7 1   
     7    7    8 1   
     8    7   15 1   
     9    8    9 1   
    10    8   11 1   
    11    8   16 1   
    12    9   10 2   
    13    9   19 1   
    14   11   12 1   
    15   11   17 1   
    16   11   18 1   
    17   12   13 1   
    18   12   14 1   
    19   19   20 1   
    20   19   28 1   
    21   20   21 1   
    22   20   23 1   
    23   20   29 1   
    24   21   22 2   
    25   21   41 1   
    26   23   24 1   
    27   23   30 1   
    28   23   31 1   
    29   24   25 1   
    30   24   32 1   
    31   24   33 1   
    32   25   26 1   
    33   25   34 1   
    34   25   35 1   
    35   26   27 1   
    36   26   36 1   
    37   26   37 1   
    38   27   38 1   
    39   27   39 1   
    40   27   40 1   
    41   41   42 1   
    42   41   49 1   
    43   42   43 1   
    44   42   45 1   
    45   42   50 1   
    46   43   44 2   
    47   43   53 1   
    48   45   46 1   
    49   45   51 1   
    50   45   52 1   
    51   46   47 1   
    52   46   48 1   
    53   53   54 1   
    54   53   57 1   
    55   54   55 1   
    56   54   58 1   
    57   54   59 1   
    58   55   56 2   
    59   55   60 1   
    60   60   61 1   
    61   60   68 1   
    62   61   62 1   
    63   61   64 1   
    64   61   69 1   
    65   62   63 2   
    66   62   72 1   
    67   64   65 1   
    68   64   70 1   
    69   64   71 1   
    70   65   66 1   
    71   65   67 1   
    72   72   73 1   
    73   72   76 1   
    74   73   74 1   
    75   73   77 1   
    76   73   78 1   
    77   74   75 2   
    78   74   79 1   
    79   79   80 1   
    80   79   86 1   
    81   80   81 1   
    82   80   83 1   
    83   80   87 1   
    84   81   82 2   
    85   81   93 1   
    86   83   84 1   
    87   83   85 1   
    88   83   88 1   
    89   84   90 1   
    90   84   91 1   
    91   84   92 1   
    92   85   89 1   
    93   93   94 1   
    94   93  101 1   
    95   94   95 1   
    96   94   97 1   
    97   94  102 1   
    98   95   96 2   
    99   95  112 1   
   100   97   98 1   
   101   97   99 1   
   102   97  103 1   
   103   98  100 1   
   104   98  104 1   
   105   98  105 1   
   106   99  106 1   
   107   99  107 1   
   108   99  108 1   
   109  100  109 1   
   110  100  110 1   
   111  100  111 1   
   112  112  113 1   
   113  112  119 1   
   114  113  114 1   
   115  113  116 1   
   116  113  120 1   
   117  114  115 2   
   118  114  126 1   
   119  116  117 1   
   120  116  118 1   
   121  116  121 1   
   122  117  123 1   
   123  117  124 1   
   124  117  125 1   
   125  118  122 1   
   126  126  127 1   
   127  126  133 1   
   128  127  128 1   
   129  127  130 1   
   130  127  134 1   
   131  128  129 2   
   132  128  140 1   
   133  130  131 1   
   134  130  132 1   
   135  130  135 1   
   136  131  137 1   
   137  131  138 1   
   138  131  139 1   
   139  132  136 1   
   140  140  141 1   
   141  140  149 1   
   142  141  142 1   
   143  141  144 1   
   144  141  150 1   
   145  142  143 2   
   146  142  162 1   
   147  144  145 1   
   148  144  151 1   
   149  144  152 1   
   150  145  146 1   
   151  145  153 1   
   152  145  154 1   
   153  146  147 1   
   154  146  155 1   
   155  146  156 1   
   156  147  148 1   
   157  147  157 1   
   158  147  158 1   
   159  148  159 1   
   160  148  160 1   
   161  148  161 1   
   162  162  163 1   
   163  162  171 1   
   164  163  164 1   
   165  163  166 1   
   166  163  172 1   
   167  164  165 2   
   168  164  177 1   
   169  166  167 1   
   170  166  173 1   
   171  166  174 1   
   172  167  168 1   
   173  167  175 1   
   174  167  176 1   
   175  168  169 1   
   176  168  170 1   
   177  177  178 1   
   178  177  182 1   
   179  178  179 1   
   180  178  180 1   
   181  178  181 1   
   182  184  185 1   
   183  184  186 1   
   184  187  188 1   
   185  187  189 1   
   186  190  191 1   
   187  190  192 1   
   188  193  194 1   
   189  193  195 1   
@<TRIPOS>SUBSTRUCTURE
     1 MOL         1 TEMP              0 ****  ****    0 ROOT
