@<TRIPOS>MOLECULE
MOL
  178   175     1     0     0
SMALL
resp


@<TRIPOS>ATOM
      1 C1          5.5420   -2.2550    4.7110 c3        1 MOL     -0.378296
      2 C2          6.5650   -1.3880    4.0210 c         1 MOL      0.735940
      3 O1          6.1660   -0.3830    3.3480 o         1 MOL     -0.598928
      4 H1          6.0520   -3.0200    5.2960 hc        1 MOL      0.091960
      5 H2          4.9300   -1.6400    5.3710 hc        1 MOL      0.091960
      6 H3          4.9070   -2.7310    3.9650 hc        1 MOL      0.091960
      7 N1          7.8600   -1.6900    4.1540 n         1 MOL     -0.633920
      8 C3          8.9180   -1.1320    3.3340 c3        1 MOL      0.185825
      9 C4          8.6090   -1.4010    1.8500 c         1 MOL      0.617074
     10 O2          8.2090   -2.5130    1.4470 o         1 MOL     -0.566391
     11 C5         10.3000   -1.7220    3.6750 c3        1 MOL     -0.127695
     12 C6         11.4810   -1.0030    2.9480 c         1 MOL      0.686984
     13 O3         11.8090   -1.6340    1.9150 o         1 MOL     -0.724955
     14 O4         11.8830    0.0860    3.3440 o         1 MOL     -0.724955
     15 H4          8.0800   -2.4890    4.7330 hn        1 MOL      0.306109
     16 H5          8.8240   -0.0620    3.5030 h1        1 MOL      0.023660
     17 H6         10.3310   -2.7820    3.4380 hc        1 MOL     -0.015224
     18 H7         10.5780   -1.5420    4.7110 hc        1 MOL     -0.015224
     19 N2          8.8250   -0.3500    1.0480 n         1 MOL     -0.493621
     20 C7          8.5240   -0.3240   -0.3310 c3        1 MOL      0.222438
     21 C8          7.0240   -0.3750   -0.7020 c         1 MOL      0.518398
     22 O5          6.1840   -0.1480    0.1600 o         1 MOL     -0.467125
     23 C9          9.1880    0.9620   -0.8560 c3        1 MOL     -0.200677
     24 H8          9.1100    0.5460    1.4170 hn        1 MOL      0.288691
     25 H9          9.0920   -1.1240   -0.8120 h1        1 MOL      0.052439
     26 H10         8.8570    1.2400   -1.8550 hc        1 MOL      0.042760
     27 H11         8.9000    1.7930   -0.2100 hc        1 MOL      0.042760
     28 H12        10.2640    0.7780   -0.8400 hc        1 MOL      0.042760
     29 N3          6.6900   -0.8660   -1.9070 n         1 MOL     -0.774942
     30 C10         5.2940   -1.0680   -2.3410 c3        1 MOL      0.608748
     31 C11         5.0520   -0.3250   -3.6640 c         1 MOL      0.320744
     32 O6          4.7440   -0.9440   -4.6880 o         1 MOL     -0.485605
     33 C12         4.9530   -2.5270   -2.3290 c3        1 MOL     -0.309501
     34 C13         3.5120   -2.8100   -2.7460 c         1 MOL      0.616930
     35 O7          2.6760   -1.9890   -2.3750 o         1 MOL     -0.690347
     36 O8          3.1300   -3.8510   -3.2680 o         1 MOL     -0.690347
     37 H13         7.4190   -1.1090   -2.5650 hn        1 MOL      0.319979
     38 H14         4.6220   -0.5920   -1.6250 h1        1 MOL     -0.054921
     39 H15         5.1820   -3.0030   -1.3760 hc        1 MOL      0.076311
     40 H16         5.6440   -2.9980   -3.0230 hc        1 MOL      0.076311
     41 N4          4.9710    0.9990   -3.5670 n         1 MOL     -0.321419
     42 C14         4.4950    1.8170   -4.6790 c3        1 MOL     -0.069100
     43 C15         3.1970    2.4810   -4.4430 c         1 MOL      0.650770
     44 O9          2.8450    3.4630   -5.0680 o         1 MOL     -0.626902
     45 H17         5.2260    1.4400   -2.6970 hn        1 MOL      0.261466
     46 H18         4.3050    1.1290   -5.5010 h1        1 MOL      0.059172
     47 H19         5.2440    2.5620   -4.9650 h1        1 MOL      0.059172
     48 N5          2.3470    1.9050   -3.6220 n         1 MOL     -0.411244
     49 C16         0.9900    2.3390   -3.4130 c3        1 MOL      0.146872
     50 C17         1.0500    3.6740   -2.6250 c         1 MOL      0.414496
     51 O10         1.9190    3.9260   -1.7530 o         1 MOL     -0.525517
     52 C18         0.0940    1.1890   -2.9480 c3        1 MOL     -0.185439
     53 C19        -1.3780    1.4230   -3.2620 c         1 MOL      0.646701
     54 N6         -2.1890    0.4130   -3.0700 n         1 MOL     -0.798644
     55 O11        -1.7930    2.5620   -3.6700 o         1 MOL     -0.624895
     56 H20         2.6550    1.2670   -2.9030 hn        1 MOL      0.235809
     57 H21         0.5850    2.6020   -4.3870 h1        1 MOL      0.026939
     58 H22         0.2070    0.9820   -1.8780 hc        1 MOL      0.097460
     59 H23         0.3580    0.2980   -3.5180 hc        1 MOL      0.097460
     60 H24        -1.8760   -0.3850   -2.5330 hn        1 MOL      0.364753
     61 H25        -3.1590    0.5620   -3.2940 hn        1 MOL      0.364753
     62 N7          0.2490    4.6240   -3.0670 n         1 MOL     -0.264438
     63 C20         0.1900    5.9510   -2.4520 c3        1 MOL     -0.068100
     64 C21        -0.9980    6.1340   -1.5370 c         1 MOL      0.513194
     65 O12        -2.0960    5.5390   -1.6780 o         1 MOL     -0.476453
     66 H26        -0.4470    4.4470   -3.7700 hn        1 MOL      0.281052
     67 H27        -0.0010    6.6120   -3.2940 h1        1 MOL      0.065366
     68 H28         1.0880    6.2830   -1.9410 h1        1 MOL      0.065366
     69 N8         -0.8660    6.9710   -0.4860 n         1 MOL     -0.396786
     70 C22        -1.9070    7.4330    0.4480 c3        1 MOL     -0.199144
     71 C23        -2.4070    6.2140    1.2540 c         1 MOL      0.354370
     72 O13        -3.6200    6.1670    1.5780 o         1 MOL     -0.561552
     73 C24        -1.4830    8.6010    1.4640 c3        1 MOL      0.378453
     74 C25        -0.4840    8.0990    2.5460 c3        1 MOL     -0.145641
     75 O14        -0.9220    9.7490    0.9070 oh        1 MOL     -0.603188
     76 H29         0.0320    7.4330   -0.4180 hn        1 MOL      0.236574
     77 H30        -2.7810    7.8040   -0.0890 h1        1 MOL      0.155210
     78 H31        -2.3620    8.9640    1.9810 h1        1 MOL      0.046025
     79 H32        -0.0420    9.4530    0.6850 ho        1 MOL      0.370345
     80 H33         0.2050    8.8660    2.9000 hc        1 MOL      0.026363
     81 H34        -1.0790    7.7610    3.3930 hc        1 MOL      0.026363
     82 H35         0.0320    7.1860    2.2570 hc        1 MOL      0.026363
     83 N9         -1.5820    5.1940    1.4940 n         1 MOL      0.036759
     84 C26        -1.9480    3.8550    2.0450 c3        1 MOL     -0.103935
     85 C27        -1.4460    2.7320    1.1120 c         1 MOL      0.453338
     86 O15        -0.3880    2.8730    0.5180 o         1 MOL     -0.452913
     87 C28        -1.4170    3.7520    3.5470 c3        1 MOL      0.241857
     88 C29        -0.0670    4.3290    3.8670 c3        1 MOL      0.060126
     89 C30        -2.4020    4.5380    4.3340 c3        1 MOL     -0.450223
     90 C31         0.5960    3.9140    5.1690 c3        1 MOL     -0.136026
     91 H36        -0.6130    5.3160    1.2180 hn        1 MOL      0.135806
     92 H37        -3.0240    3.7250    2.0580 h1        1 MOL      0.102511
     93 H38        -1.4220    2.7140    3.8710 hc        1 MOL     -0.025271
     94 H39        -0.0850    5.4160    3.7570 hc        1 MOL      0.005726
     95 H40         0.5640    3.9220    3.0790 hc        1 MOL      0.005726
     96 H41        -2.4720    5.5820    4.0320 hc        1 MOL      0.092913
     97 H42        -3.3660    4.0500    4.2120 hc        1 MOL      0.092913
     98 H43        -2.1140    4.5840    5.3790 hc        1 MOL      0.092913
     99 H44         1.6260    4.2760    5.1610 hc        1 MOL      0.030440
    100 H45         0.0650    4.3450    6.0150 hc        1 MOL      0.030440
    101 H46         0.5240    2.8380    5.3090 hc        1 MOL      0.030440
    102 N10        -2.1210    1.5570    1.2470 n         1 MOL     -0.620738
    103 C32        -2.0110    0.3690    0.3260 c3        1 MOL      0.305534
    104 C33        -3.3870   -0.3040    0.0760 c         1 MOL      0.551784
    105 O16        -3.5380   -1.4650   -0.2460 o         1 MOL     -0.519682
    106 C34        -0.9950   -0.6320    0.8850 c3        1 MOL      0.057309
    107 C35        -0.4500   -1.6070   -0.1530 c         1 MOL      0.561925
    108 O17        -0.7930   -1.4410   -1.3410 o         1 MOL     -0.702244
    109 O18         0.2000   -2.6490    0.1540 o         1 MOL     -0.702244
    110 H47        -2.8010    1.5180    2.0070 hn        1 MOL      0.306936
    111 H48        -1.5990    0.7840   -0.5990 h1        1 MOL      0.026138
    112 H49        -1.3930   -1.1280    1.7710 hc        1 MOL      0.001398
    113 H50        -0.1140   -0.0690    1.1720 hc        1 MOL      0.001398
    114 N11        -4.5360    0.4060    0.2800 n         1 MOL     -0.661799
    115 C36        -5.8830   -0.1180   -0.0170 c3        1 MOL      0.562327
    116 C37        -6.2580   -1.2250    1.0500 c         1 MOL      0.142244
    117 O19        -5.9740   -1.0210    2.2670 o         1 MOL     -0.491779
    118 C38        -6.9070    0.9950   -0.0750 c3        1 MOL     -0.319623
    119 C39        -8.3140    0.5570   -0.4790 ca        1 MOL      0.108663
    120 C40        -8.8020    0.6590   -1.8050 ca        1 MOL     -0.216248
    121 C41        -9.1490   -0.0300    0.5480 ca        1 MOL     -0.216248
    122 C42        -9.9820   -0.0060   -2.1280 ca        1 MOL     -0.038168
    123 C43       -10.3860   -0.6370    0.1510 ca        1 MOL     -0.038168
    124 C44       -10.7660   -0.6370   -1.1820 ca        1 MOL     -0.166480
    125 H51        -4.4750    1.3670    0.5680 hn        1 MOL      0.270025
    126 H52        -5.9380   -0.3800   -1.0720 h1        1 MOL     -0.060616
    127 H53        -6.5490    1.7470   -0.7840 hc        1 MOL      0.109010
    128 H54        -6.9980    1.3870    0.9400 hc        1 MOL      0.109010
    129 H55        -8.1120    1.0120   -2.5530 ha        1 MOL      0.146578
    130 H56        -8.7140   -0.0720    1.5370 ha        1 MOL      0.146578
    131 H57       -10.3200    0.0890   -3.1450 ha        1 MOL      0.094098
    132 H58       -10.9570   -1.1120    0.9370 ha        1 MOL      0.094098
    133 H59       -11.6440   -1.1870   -1.4700 ha        1 MOL      0.110234
    134 N12        -6.7300   -2.4080    0.5580 n         1 MOL      0.041901
    135 C45        -7.1160   -3.5130    1.5530 c3        1 MOL      0.091276
    136 C46        -5.9090   -3.9630    2.3140 c         1 MOL      0.287391
    137 O20        -6.0580   -4.2600    3.4820 o         1 MOL     -0.497416
    138 C47        -7.7480   -4.4920    0.6340 c3        1 MOL      0.137151
    139 C48        -8.3000   -3.7000   -0.5730 c3        1 MOL     -0.280054
    140 C49        -7.2250   -2.6240   -0.8090 c3        1 MOL     -0.019596
    141 H60        -7.8770   -3.1200    2.2290 h1        1 MOL      0.044764
    142 H61        -7.0770   -5.2930    0.3250 hc        1 MOL     -0.012351
    143 H62        -8.5610   -4.9820    1.1650 hc        1 MOL     -0.012351
    144 H63        -8.3050   -4.3250   -1.4560 hc        1 MOL      0.082002
    145 H64        -9.2170   -3.1880   -0.2720 hc        1 MOL      0.082002
    146 H65        -6.3830   -3.0400   -1.3640 h1        1 MOL      0.051418
    147 H66        -7.7540   -1.7260   -1.1270 h1        1 MOL      0.051418
    148 N13        -4.7170   -3.9470    1.6980 n         1 MOL     -0.128680
    149 C50        -3.4820   -4.5510    2.1780 c3        1 MOL     -0.260858
    150 C51        -3.0100   -3.9660    3.5770 c         1 MOL      0.425674
    151 O21        -2.3920   -4.6780    4.3650 o         1 MOL     -0.542724
    152 C52        -2.3290   -4.4380    1.1300 c3        1 MOL      0.017151
    153 C53        -2.6930   -5.2280   -0.1310 c3        1 MOL     -0.142690
    154 C54        -1.6150   -5.2020   -1.2250 c         1 MOL      0.686198
    155 O22        -0.4750   -5.6590   -0.9150 o         1 MOL     -0.737482
    156 O23        -1.8280   -4.6500   -2.3290 o         1 MOL     -0.737482
    157 H67        -4.6610   -3.5040    0.7960 hn        1 MOL      0.179900
    158 H68        -3.5980   -5.6300    2.3140 h1        1 MOL      0.157885
    159 H69        -1.4080   -4.8630    1.5470 hc        1 MOL      0.084441
    160 H70        -2.1400   -3.3980    0.8640 hc        1 MOL      0.084441
    161 H71        -3.6220   -4.8860   -0.5880 hc        1 MOL      0.011883
    162 H72        -2.8870   -6.2430    0.2230 hc        1 MOL      0.011883
    163 N14        -3.2640   -2.6900    3.8450 n         1 MOL     -0.073841
    164 C55        -3.0260   -1.9810    5.1350 c3        1 MOL     -0.364050
    165 H73        -3.9570   -1.5290    5.4770 h1        1 MOL      0.129429
    166 H74        -2.6720   -2.6930    5.8810 h1        1 MOL      0.129429
    167 H75        -2.2770   -1.2030    4.9890 h1        1 MOL      0.129429
    168 H76        -3.7180   -2.1380    3.1230 hn        1 MOL      0.212846
    169 Ca1         0.6950   -3.5950   -2.1640 Ca        1 MOL      1.676723
    170 O24         2.5920   -4.9330   -0.6460 oh        1 MOL     -0.792708
    171 H77         3.4960   -5.1940   -0.8190 ho        1 MOL      0.397633
    172 H78         2.5550   -4.7470    0.2890 ho        1 MOL      0.397633
    173 O25        -0.0190   -2.4950   -4.4290 oh        1 MOL     -0.792708
    174 H79        -0.2930   -2.9460   -5.2280 ho        1 MOL      0.397633
    175 H80        -0.3090   -1.5950   -4.5510 ho        1 MOL      0.397633
    176 O26         0.7930   -5.6980   -3.6690 oh        1 MOL     -0.792708
    177 H81         0.1370   -6.3960   -3.6230 ho        1 MOL      0.397633
    178 H82         1.6150   -6.1520   -3.8560 ho        1 MOL      0.397633
@<TRIPOS>BOND
     1    1    2 1   
     2    1    4 1   
     3    1    5 1   
     4    1    6 1   
     5    2    3 2   
     6    2    7 1   
     7    7    8 1   
     8    7   15 1   
     9    8    9 1   
    10    8   11 1   
    11    8   16 1   
    12    9   10 2   
    13    9   19 1   
    14   11   12 1   
    15   11   17 1   
    16   11   18 1   
    17   12   13 1   
    18   12   14 1   
    19   19   20 1   
    20   19   24 1   
    21   20   21 1   
    22   20   23 1   
    23   20   25 1   
    24   21   22 2   
    25   21   29 1   
    26   23   26 1   
    27   23   27 1   
    28   23   28 1   
    29   29   30 1   
    30   29   37 1   
    31   30   31 1   
    32   30   33 1   
    33   30   38 1   
    34   31   32 2   
    35   31   41 1   
    36   33   34 1   
    37   33   39 1   
    38   33   40 1   
    39   34   35 1   
    40   34   36 1   
    41   41   42 1   
    42   41   45 1   
    43   42   43 1   
    44   42   46 1   
    45   42   47 1   
    46   43   44 2   
    47   43   48 1   
    48   48   49 1   
    49   48   56 1   
    50   49   50 1   
    51   49   52 1   
    52   49   57 1   
    53   50   51 2   
    54   50   62 1   
    55   52   53 1   
    56   52   58 1   
    57   52   59 1   
    58   53   54 1   
    59   53   55 2   
    60   54   60 1   
    61   54   61 1   
    62   62   63 1   
    63   62   66 1   
    64   63   64 1   
    65   63   67 1   
    66   63   68 1   
    67   64   65 2   
    68   64   69 1   
    69   69   70 1   
    70   69   76 1   
    71   70   71 1   
    72   70   73 1   
    73   70   77 1   
    74   71   72 2   
    75   71   83 1   
    76   73   74 1   
    77   73   75 1   
    78   73   78 1   
    79   74   80 1   
    80   74   81 1   
    81   74   82 1   
    82   75   79 1   
    83   83   84 1   
    84   83   91 1   
    85   84   85 1   
    86   84   87 1   
    87   84   92 1   
    88   85   86 2   
    89   85  102 1   
    90   87   88 1   
    91   87   89 1   
    92   87   93 1   
    93   88   90 1   
    94   88   94 1   
    95   88   95 1   
    96   89   96 1   
    97   89   97 1   
    98   89   98 1   
    99   90   99 1   
   100   90  100 1   
   101   90  101 1   
   102  102  103 1   
   103  102  110 1   
   104  103  104 1   
   105  103  106 1   
   106  103  111 1   
   107  104  105 2   
   108  104  114 1   
   109  106  107 1   
   110  106  112 1   
   111  106  113 1   
   112  107  108 1   
   113  107  109 1   
   114  114  115 1   
   115  114  125 1   
   116  115  116 1   
   117  115  118 1   
   118  115  126 1   
   119  116  117 2   
   120  116  134 1   
   121  118  119 1   
   122  118  127 1   
   123  118  128 1   
   124  119  120 ar  
   125  119  121 ar  
   126  120  122 ar  
   127  120  129 1   
   128  121  123 ar  
   129  121  130 1   
   130  122  124 ar  
   131  122  131 1   
   132  123  124 ar  
   133  123  132 1   
   134  124  133 1   
   135  134  135 1   
   136  134  140 1   
   137  135  136 1   
   138  135  138 1   
   139  135  141 1   
   140  136  137 2   
   141  136  148 1   
   142  138  139 1   
   143  138  142 1   
   144  138  143 1   
   145  139  140 1   
   146  139  144 1   
   147  139  145 1   
   148  140  146 1   
   149  140  147 1   
   150  148  149 1   
   151  148  157 1   
   152  149  150 1   
   153  149  152 1   
   154  149  158 1   
   155  150  151 2   
   156  150  163 1   
   157  152  153 1   
   158  152  159 1   
   159  152  160 1   
   160  153  154 1   
   161  153  161 1   
   162  153  162 1   
   163  154  155 1   
   164  154  156 1   
   165  163  164 1   
   166  163  168 1   
   167  164  165 1   
   168  164  166 1   
   169  164  167 1   
   170  170  171 1   
   171  170  172 1   
   172  173  174 1   
   173  173  175 1   
   174  176  177 1   
   175  176  178 1   
@<TRIPOS>SUBSTRUCTURE
     1 MOL         1 TEMP              0 ****  ****    0 ROOT
