@<TRIPOS>MOLECULE
MOL
  178   175     1     0     0
SMALL
resp


@<TRIPOS>ATOM
      1 C1          1.6280    7.2510   -1.7660 c3        1 MOL     -0.443685
      2 C2          2.8720    6.5730   -1.2040 c         1 MOL      0.684581
      3 O1          3.1060    6.6850   -0.0070 o         1 MOL     -0.563514
      4 H1          0.7500    6.9050   -1.2200 hc        1 MOL      0.107733
      5 H2          1.7210    8.3310   -1.6560 hc        1 MOL      0.107733
      6 H3          1.5220    7.0000   -2.8220 hc        1 MOL      0.107733
      7 N1          3.7400    5.9360   -2.0520 n         1 MOL     -0.497434
      8 C3          5.0570    5.3380   -1.6550 c3        1 MOL     -0.013076
      9 C4          4.9020    4.2220   -0.5530 c         1 MOL      0.602336
     10 O2          4.2760    3.1720   -0.8490 o         1 MOL     -0.553541
     11 C5          5.6230    4.5970   -2.9150 c3        1 MOL     -0.266320
     12 C6          6.9340    3.8400   -2.6770 c         1 MOL      0.832225
     13 O3          7.0690    2.7020   -3.0400 o         1 MOL     -0.768399
     14 O4          7.8610    4.5450   -2.1250 o         1 MOL     -0.768399
     15 H4          3.3340    5.7530   -2.9510 hn        1 MOL      0.289963
     16 H5          5.7600    6.0330   -1.2030 h1        1 MOL      0.066692
     17 H6          5.7110    5.2220   -3.7980 hc        1 MOL      0.043549
     18 H7          4.8670    3.8760   -3.2040 hc        1 MOL      0.043549
     19 N2          5.5830    4.4290    0.5980 n         1 MOL     -0.579506
     20 C7          5.3410    3.6260    1.7470 c3        1 MOL      0.550704
     21 C8          3.8370    3.4350    2.1810 c         1 MOL      0.365643
     22 O5          2.9620    4.2240    1.9040 o         1 MOL     -0.490746
     23 C9          6.1800    4.3350    2.7830 c3        1 MOL     -0.347974
     24 H8          6.3650    5.0760    0.6100 hn        1 MOL      0.306445
     25 H9          5.7210    2.6190    1.6200 h1        1 MOL     -0.082337
     26 H10         6.2650    3.7080    3.6690 hc        1 MOL      0.073250
     27 H11         7.1930    4.5430    2.4540 hc        1 MOL      0.073250
     28 H12         5.6430    5.2300    3.0850 hc        1 MOL      0.073250
     29 N3          3.5070    2.2570    2.7960 n         1 MOL     -0.208133
     30 C10         4.4070    1.2210    3.2770 c3        1 MOL     -0.170488
     31 C11         4.3980    0.0580    2.2640 c         1 MOL      0.397604
     32 O6          3.3480   -0.1980    1.5770 o         1 MOL     -0.524090
     33 C12         3.8640    0.7320    4.5770 c3        1 MOL     -0.061213
     34 C13         2.3980    0.5130    4.8270 c         1 MOL      0.666061
     35 O7          1.5910    0.6150    3.8670 o         1 MOL     -0.665644
     36 O8          2.0720    0.1110    5.9560 o         1 MOL     -0.665644
     37 H13         2.4990    2.1990    2.8880 hn        1 MOL      0.117980
     38 H14         5.4200    1.6040    3.4300 h1        1 MOL      0.110049
     39 H15         4.3200    1.2860    5.3950 hc        1 MOL      0.019861
     40 H16         4.3550   -0.2190    4.8000 hc        1 MOL      0.019861
     41 N4          5.5340   -0.5570    2.1500 n         1 MOL     -0.247791
     42 C14         5.8750   -1.6200    1.1710 c3        1 MOL     -0.198171
     43 C15         6.5390   -1.0090   -0.0870 c         1 MOL      0.675983
     44 O9          6.9760    0.1430   -0.0220 o         1 MOL     -0.467008
     45 H17         6.3030   -0.2930    2.7610 hn        1 MOL      0.261991
     46 H18         4.9760   -2.2340    1.0710 h1        1 MOL      0.107735
     47 H19         6.6370   -2.1660    1.7330 h1        1 MOL      0.107735
     48 N5          6.8590   -1.6980   -1.1980 n         1 MOL     -0.673662
     49 C16         6.5850   -3.1990   -1.4810 c3        1 MOL      0.188208
     50 C17         5.3610   -3.4970   -2.4130 c         1 MOL      0.536253
     51 O10         5.2010   -4.6180   -2.8370 o         1 MOL     -0.527423
     52 C18         7.8400   -3.9560   -1.9660 c3        1 MOL     -0.355005
     53 C19         9.0080   -3.7400   -1.0040 c         1 MOL      0.632250
     54 N6          9.3160   -4.7000   -0.1840 n         1 MOL     -0.759940
     55 O11         9.5590   -2.6160   -0.7970 o         1 MOL     -0.535946
     56 H20         7.2510   -1.1740   -1.9620 hn        1 MOL      0.402345
     57 H21         6.2400   -3.6670   -0.5520 h1        1 MOL      0.069556
     58 H22         8.1480   -3.4940   -2.9120 hc        1 MOL      0.106355
     59 H23         7.4930   -4.9910   -2.0280 hc        1 MOL      0.106355
     60 H24         8.8100   -5.5720   -0.2830 hn        1 MOL      0.363930
     61 H25        10.1100   -4.5560    0.4150 hn        1 MOL      0.363930
     62 N7          4.5510   -2.4840   -2.7250 n         1 MOL     -0.313057
     63 C20         3.4540   -2.5960   -3.6460 c3        1 MOL     -0.241367
     64 C21         2.1870   -3.2630   -2.9810 c         1 MOL      0.463348
     65 O12         1.2130   -3.4610   -3.6940 o         1 MOL     -0.545604
     66 H26         4.8140   -1.5630   -2.3920 hn        1 MOL      0.244422
     67 H27         3.7840   -3.1520   -4.5140 h1        1 MOL      0.148739
     68 H28         3.1520   -1.5740   -3.9000 h1        1 MOL      0.148739
     69 N8          2.2660   -3.6080   -1.6930 n         1 MOL     -0.032393
     70 C22         1.2720   -4.3650   -0.9570 c3        1 MOL     -0.253456
     71 C23         0.1010   -3.4230   -0.4480 c         1 MOL      0.485430
     72 O13         0.1920   -2.6010    0.4850 o         1 MOL     -0.520981
     73 C24         1.8850   -5.1780    0.2070 c3        1 MOL      0.290464
     74 C25         2.6590   -6.3160   -0.4910 c3        1 MOL     -0.231349
     75 O14         2.8210   -4.4710    0.9670 oh        1 MOL     -0.551181
     76 H29         3.0710   -3.3170   -1.1570 hn        1 MOL      0.115941
     77 H30         0.8390   -4.9890   -1.7340 h1        1 MOL      0.117281
     78 H31         1.0960   -5.6250    0.8120 h1        1 MOL      0.051235
     79 H32         2.2850   -4.0770    1.6570 ho        1 MOL      0.336077
     80 H33         3.2690   -6.0280   -1.3510 hc        1 MOL      0.052830
     81 H34         3.3000   -6.8350    0.2150 hc        1 MOL      0.052830
     82 H35         1.8900   -7.0200   -0.8150 hc        1 MOL      0.052830
     83 N9         -1.0140   -3.5910   -1.1250 n         1 MOL     -0.212403
     84 C26        -2.2990   -2.8830   -0.9880 c3        1 MOL     -0.679198
     85 C27        -2.9080   -3.2100    0.3740 c         1 MOL      0.679264
     86 O15        -3.4560   -4.3120    0.5460 o         1 MOL     -0.593220
     87 C28        -3.0450   -3.2980   -2.2500 c3        1 MOL      0.593193
     88 C29        -4.3580   -2.4240   -2.3440 c3        1 MOL     -0.000871
     89 C30        -2.3020   -3.3170   -3.5410 c3        1 MOL     -0.360815
     90 C31        -5.3340   -2.7470   -3.4850 c3        1 MOL     -0.212985
     91 H36        -0.9390   -4.3140   -1.8340 hn        1 MOL      0.211145
     92 H37        -1.9970   -1.8360   -0.9550 h1        1 MOL      0.312608
     93 H38        -3.4350   -4.3040   -2.1060 hc        1 MOL     -0.052069
     94 H39        -4.2030   -1.3430   -2.2910 hc        1 MOL     -0.026220
     95 H40        -4.8670   -2.5710   -1.3880 hc        1 MOL     -0.026220
     96 H41        -1.9710   -2.3040   -3.7930 hc        1 MOL      0.074446
     97 H42        -1.4880   -4.0530   -3.5690 hc        1 MOL      0.074446
     98 H43        -3.0150   -3.7210   -4.2630 hc        1 MOL      0.074446
     99 H44        -4.8210   -2.8370   -4.4430 hc        1 MOL      0.035611
    100 H45        -5.8130   -3.7240   -3.4550 hc        1 MOL      0.035611
    101 H46        -5.9780   -1.8770   -3.6520 hc        1 MOL      0.035611
    102 N10        -3.0440   -2.2350    1.2590 n         1 MOL     -0.219991
    103 C32        -3.7510   -2.3640    2.5310 c3        1 MOL     -0.108484
    104 C33        -5.1430   -1.7900    2.4060 c         1 MOL      0.441759
    105 O16        -6.1180   -2.2260    3.0690 o         1 MOL     -0.547838
    106 C34        -3.0770   -1.6110    3.6700 c3        1 MOL     -0.094398
    107 C35        -1.6040   -2.0040    3.7870 c         1 MOL      0.726554
    108 O17        -1.3020   -2.9740    4.5890 o         1 MOL     -0.712131
    109 O18        -0.7470   -1.3140    3.2300 o         1 MOL     -0.712131
    110 H47        -2.8320   -1.3010    0.9420 hn        1 MOL      0.094153
    111 H48        -3.7560   -3.4070    2.8460 h1        1 MOL      0.126096
    112 H49        -3.6640   -1.7960    4.5610 hc        1 MOL      0.028131
    113 H50        -3.1010   -0.5400    3.4500 hc        1 MOL      0.028131
    114 N11        -5.4330   -0.8450    1.4470 n         1 MOL     -0.279263
    115 C36        -6.7280   -0.2960    1.0450 c3        1 MOL      0.157595
    116 C37        -6.6960    1.1740    0.5130 c         1 MOL      0.208786
    117 O19        -7.1880    1.4700   -0.6530 o         1 MOL     -0.441300
    118 C38        -7.4930   -1.2570    0.1680 c3        1 MOL     -0.273992
    119 C39        -8.9890   -0.9460   -0.0260 ca        1 MOL      0.101548
    120 C40        -9.5900   -1.2690   -1.2600 ca        1 MOL     -0.125328
    121 C41        -9.7550   -0.5400    1.0920 ca        1 MOL     -0.125328
    122 C42       -10.9510   -1.0570   -1.3610 ca        1 MOL     -0.136279
    123 C43       -11.1130   -0.3610    0.9270 ca        1 MOL     -0.136279
    124 C44       -11.7300   -0.5280   -0.3340 ca        1 MOL     -0.126933
    125 H51        -4.7050   -0.5020    0.8490 hn        1 MOL      0.339767
    126 H52        -7.1780   -0.2590    2.0440 h1        1 MOL      0.036122
    127 H53        -7.5140   -2.2950    0.5110 hc        1 MOL      0.123781
    128 H54        -7.0630   -1.2950   -0.8350 hc        1 MOL      0.123781
    129 H55        -9.0800   -1.6390   -2.1290 ha        1 MOL      0.111112
    130 H56        -9.2700   -0.4010    2.0520 ha        1 MOL      0.111112
    131 H57       -11.3610   -1.2770   -2.3330 ha        1 MOL      0.097230
    132 H58       -11.6890   -0.0100    1.7690 ha        1 MOL      0.097230
    133 H59       -12.7860   -0.3610   -0.4280 ha        1 MOL      0.096694
    134 N12        -5.8450    2.0400    1.1720 n         1 MOL      0.084258
    135 C45        -5.6660    3.4160    0.8350 c3        1 MOL     -0.323255
    136 C46        -5.0400    3.6180   -0.5500 c         1 MOL      0.354062
    137 O20        -5.3120    4.6620   -1.1540 o         1 MOL     -0.500498
    138 C47        -4.7790    3.9660    1.9420 c3        1 MOL      0.163911
    139 C48        -5.1090    3.1440    3.1280 c3        1 MOL     -0.336329
    140 C49        -5.1640    1.8110    2.4590 c3        1 MOL      0.039035
    141 H60        -6.6310    3.9210    0.8700 h1        1 MOL      0.148393
    142 H61        -3.7340    3.7720    1.6910 hc        1 MOL      0.024856
    143 H62        -4.7680    5.0380    2.1530 hc        1 MOL      0.024856
    144 H63        -4.2250    3.0480    3.7570 hc        1 MOL      0.099970
    145 H64        -6.0960    3.4030    3.5410 hc        1 MOL      0.099970
    146 H65        -4.1730    1.3930    2.2910 h1        1 MOL      0.060786
    147 H66        -5.7250    1.1440    3.1130 h1        1 MOL      0.060786
    148 N13        -4.3140    2.6600   -1.0780 n         1 MOL     -0.039520
    149 C50        -3.7900    2.6780   -2.4450 c3        1 MOL     -0.194306
    150 C51        -4.8210    2.7030   -3.5510 c         1 MOL      0.543942
    151 O21        -4.8330    3.5740   -4.3650 o         1 MOL     -0.545273
    152 C52        -2.7280    1.5140   -2.7010 c3        1 MOL      0.200525
    153 C53        -1.6670    1.2780   -1.6290 c3        1 MOL     -0.175748
    154 C54        -2.2050    0.6150   -0.3400 c         1 MOL      0.725747
    155 O22        -1.3670    0.3880    0.5770 o         1 MOL     -0.739737
    156 O23        -3.3490    0.1890   -0.2000 o         1 MOL     -0.739737
    157 H67        -4.1980    1.7910   -0.5760 hn        1 MOL      0.138532
    158 H68        -3.3630    3.6800   -2.5230 h1        1 MOL      0.092848
    159 H69        -2.2560    1.9070   -3.5990 hc        1 MOL     -0.049738
    160 H70        -3.2310    0.5900   -3.0140 hc        1 MOL     -0.049738
    161 H71        -1.2730    2.2450   -1.3380 hc        1 MOL      0.048982
    162 H72        -0.8280    0.6860   -1.9910 hc        1 MOL      0.048982
    163 N14        -5.8630    1.8470   -3.5770 n         1 MOL     -0.299285
    164 C55        -7.0690    1.8950   -4.4220 c3        1 MOL     -0.101987
    165 H73        -7.9210    2.2110   -3.8200 h1        1 MOL      0.068992
    166 H74        -6.9160    2.6040   -5.2350 h1        1 MOL      0.068992
    167 H75        -7.2640    0.9050   -4.8340 h1        1 MOL      0.068992
    168 H76        -5.8560    1.2490   -2.7580 hn        1 MOL      0.251943
    169 Ca1         0.7840   -0.3010    1.6480 Ca        1 MOL      1.700048
    170 O24         2.2630   -2.5570    3.0390 oh        1 MOL     -0.859571
    171 H77         1.6600   -3.2240    3.3520 ho        1 MOL      0.427301
    172 H78         3.0960   -2.7450    3.4760 ho        1 MOL      0.427301
    173 O25         1.8060   -0.4070   -0.9040 oh        1 MOL     -0.859571
    174 H79         2.7440   -0.4100   -0.7490 ho        1 MOL      0.427301
    175 H80         1.7210   -0.2810   -1.8490 ho        1 MOL      0.427301
    176 O26         0.9170    2.4180    1.0700 oh        1 MOL     -0.859571
    177 H81         0.2210    3.0320    1.2780 ho        1 MOL      0.427301
    178 H82         1.7190    2.9350    1.0960 ho        1 MOL      0.427301
@<TRIPOS>BOND
     1    1    2 1   
     2    1    4 1   
     3    1    5 1   
     4    1    6 1   
     5    2    3 2   
     6    2    7 1   
     7    7    8 1   
     8    7   15 1   
     9    8    9 1   
    10    8   11 1   
    11    8   16 1   
    12    9   10 2   
    13    9   19 1   
    14   11   12 1   
    15   11   17 1   
    16   11   18 1   
    17   12   13 1   
    18   12   14 1   
    19   19   20 1   
    20   19   24 1   
    21   20   21 1   
    22   20   23 1   
    23   20   25 1   
    24   21   22 2   
    25   21   29 1   
    26   23   26 1   
    27   23   27 1   
    28   23   28 1   
    29   29   30 1   
    30   29   37 1   
    31   30   31 1   
    32   30   33 1   
    33   30   38 1   
    34   31   32 2   
    35   31   41 1   
    36   33   34 1   
    37   33   39 1   
    38   33   40 1   
    39   34   35 1   
    40   34   36 1   
    41   41   42 1   
    42   41   45 1   
    43   42   43 1   
    44   42   46 1   
    45   42   47 1   
    46   43   44 2   
    47   43   48 1   
    48   48   49 1   
    49   48   56 1   
    50   49   50 1   
    51   49   52 1   
    52   49   57 1   
    53   50   51 2   
    54   50   62 1   
    55   52   53 1   
    56   52   58 1   
    57   52   59 1   
    58   53   54 1   
    59   53   55 2   
    60   54   60 1   
    61   54   61 1   
    62   62   63 1   
    63   62   66 1   
    64   63   64 1   
    65   63   67 1   
    66   63   68 1   
    67   64   65 2   
    68   64   69 1   
    69   69   70 1   
    70   69   76 1   
    71   70   71 1   
    72   70   73 1   
    73   70   77 1   
    74   71   72 2   
    75   71   83 1   
    76   73   74 1   
    77   73   75 1   
    78   73   78 1   
    79   74   80 1   
    80   74   81 1   
    81   74   82 1   
    82   75   79 1   
    83   83   84 1   
    84   83   91 1   
    85   84   85 1   
    86   84   87 1   
    87   84   92 1   
    88   85   86 2   
    89   85  102 1   
    90   87   88 1   
    91   87   89 1   
    92   87   93 1   
    93   88   90 1   
    94   88   94 1   
    95   88   95 1   
    96   89   96 1   
    97   89   97 1   
    98   89   98 1   
    99   90   99 1   
   100   90  100 1   
   101   90  101 1   
   102  102  103 1   
   103  102  110 1   
   104  103  104 1   
   105  103  106 1   
   106  103  111 1   
   107  104  105 2   
   108  104  114 1   
   109  106  107 1   
   110  106  112 1   
   111  106  113 1   
   112  107  108 1   
   113  107  109 1   
   114  114  115 1   
   115  114  125 1   
   116  115  116 1   
   117  115  118 1   
   118  115  126 1   
   119  116  117 2   
   120  116  134 1   
   121  118  119 1   
   122  118  127 1   
   123  118  128 1   
   124  119  120 ar  
   125  119  121 ar  
   126  120  122 ar  
   127  120  129 1   
   128  121  123 ar  
   129  121  130 1   
   130  122  124 ar  
   131  122  131 1   
   132  123  124 ar  
   133  123  132 1   
   134  124  133 1   
   135  134  135 1   
   136  134  140 1   
   137  135  136 1   
   138  135  138 1   
   139  135  141 1   
   140  136  137 2   
   141  136  148 1   
   142  138  139 1   
   143  138  142 1   
   144  138  143 1   
   145  139  140 1   
   146  139  144 1   
   147  139  145 1   
   148  140  146 1   
   149  140  147 1   
   150  148  149 1   
   151  148  157 1   
   152  149  150 1   
   153  149  152 1   
   154  149  158 1   
   155  150  151 2   
   156  150  163 1   
   157  152  153 1   
   158  152  159 1   
   159  152  160 1   
   160  153  154 1   
   161  153  161 1   
   162  153  162 1   
   163  154  155 1   
   164  154  156 1   
   165  163  164 1   
   166  163  168 1   
   167  164  165 1   
   168  164  166 1   
   169  164  167 1   
   170  170  171 1   
   171  170  172 1   
   172  173  174 1   
   173  173  175 1   
   174  176  177 1   
   175  176  178 1   
@<TRIPOS>SUBSTRUCTURE
     1 MOL         1 TEMP              0 ****  ****    0 ROOT
