@<TRIPOS>MOLECULE
MOL
  192   187     1     0     0
SMALL
resp


@<TRIPOS>ATOM
      1 C1          0.5310    4.9230    3.5350 c3        1 MOL     -0.164159
      2 C2         -0.1520    4.7140    2.1940 c         1 MOL      0.437643
      3 O1         -1.0090    3.8520    2.0600 o         1 MOL     -0.459980
      4 H1          1.4940    5.4100    3.3790 hc        1 MOL      0.043061
      5 H2         -0.0950    5.5500    4.1680 hc        1 MOL      0.043061
      6 H3          0.6870    3.9580    4.0180 hc        1 MOL      0.043061
      7 N1          0.2600    5.3990    1.1040 n         1 MOL     -0.314791
      8 C3         -0.2310    5.2190   -0.2040 c3        1 MOL     -0.221336
      9 C4         -1.7740    5.0500   -0.2690 c         1 MOL      0.795780
     10 O2         -2.2750    4.1440   -0.9530 o         1 MOL     -0.547044
     11 C5          0.5220    4.0950   -1.0000 c3        1 MOL     -0.096437
     12 C6          2.0580    4.0700   -0.8440 c         1 MOL      0.686090
     13 O3          2.5900    3.3700    0.1100 o         1 MOL     -0.764280
     14 O4          2.7950    4.6420   -1.6310 o         1 MOL     -0.764280
     15 H4          1.1180    5.9380    1.2000 hn        1 MOL      0.227506
     16 H5         -0.0010    6.1670   -0.6990 h1        1 MOL      0.107310
     17 H6          0.2200    4.1210   -2.0440 hc        1 MOL      0.083516
     18 H7          0.0990    3.1410   -0.6780 hc        1 MOL      0.083516
     19 N2         -2.5930    5.9150    0.4330 n         1 MOL     -0.672843
     20 C7         -4.0500    5.8040    0.3350 c3        1 MOL     -0.042304
     21 C8         -4.5630    6.2100   -1.0980 c         1 MOL      0.388931
     22 O5         -4.1980    7.3130   -1.6000 o         1 MOL     -0.572940
     23 C9         -4.7470    6.5410    1.4460 c3        1 MOL      0.043480
     24 C10        -4.5090    8.0460    1.5350 c3        1 MOL      0.057159
     25 C11        -4.2960    5.8410    2.8230 c3        1 MOL     -0.280026
     26 C12        -5.2400    8.7970    2.6010 c3        1 MOL     -0.185748
     27 H8         -2.2270    6.6100    1.0650 hn        1 MOL      0.307718
     28 H9         -4.3300    4.7550    0.4740 h1        1 MOL      0.199733
     29 H10        -5.7760    6.2930    1.2080 hc        1 MOL      0.128698
     30 H11        -4.8900    8.5540    0.6400 hc        1 MOL      0.035216
     31 H12        -3.4740    8.3230    1.7270 hc        1 MOL      0.035216
     32 H13        -5.0810    5.9100    3.5810 hc        1 MOL      0.082872
     33 H14        -4.1460    4.7630    2.7810 hc        1 MOL      0.082872
     34 H15        -3.4180    6.2530    3.3060 hc        1 MOL      0.082872
     35 H16        -4.8770    9.8160    2.4800 hc        1 MOL      0.024513
     36 H17        -6.3150    8.6420    2.4820 hc        1 MOL      0.024513
     37 H18        -4.9200    8.4330    3.5670 hc        1 MOL      0.024513
     38 N3         -5.5570    5.5100   -1.6770 n         1 MOL     -0.234533
     39 C13        -6.2960    4.3830   -1.0940 c3        1 MOL     -0.110427
     40 C14        -5.4800    3.0370   -1.2280 c         1 MOL      0.522300
     41 O6         -5.3970    2.2560   -0.2970 o         1 MOL     -0.494127
     42 C15        -7.7520    4.3040   -1.6110 c3        1 MOL     -0.204588
     43 C16        -8.5900    3.1390   -1.0340 c         1 MOL      0.788579
     44 O7         -8.8160    3.1580    0.2560 o         1 MOL     -0.722017
     45 O8         -9.1720    2.3920   -1.7800 o         1 MOL     -0.722017
     46 H19        -5.7910    5.7720   -2.6230 hn        1 MOL      0.231712
     47 H20        -6.4500    4.5110   -0.0210 h1        1 MOL     -0.009627
     48 H21        -7.8340    4.0750   -2.6760 hc        1 MOL      0.037009
     49 H22        -8.2900    5.2390   -1.4640 hc        1 MOL      0.037009
     50 N4         -4.9100    2.8130   -2.4330 n         1 MOL     -0.360520
     51 C17        -4.3360    1.5670   -2.6910 c3        1 MOL     -0.205626
     52 C18        -5.3550    0.4390   -2.9850 c         1 MOL      0.488256
     53 O9         -6.5710    0.6360   -3.2160 o         1 MOL     -0.484808
     54 H23        -5.0660    3.4500   -3.1950 hn        1 MOL      0.288057
     55 H24        -3.7830    1.2520   -1.8060 h1        1 MOL      0.119619
     56 H25        -3.6980    1.7130   -3.5610 h1        1 MOL      0.119619
     57 N5         -4.8700   -0.7790   -2.9020 n         1 MOL     -0.455735
     58 C19        -5.6700   -1.9670   -3.2720 c3        1 MOL      0.188517
     59 C20        -6.5170   -2.4000   -2.0880 c         1 MOL      0.403378
     60 O10        -7.3430   -3.3110   -2.2250 o         1 MOL     -0.552992
     61 C21        -4.7570   -3.1730   -3.6700 c3        1 MOL     -0.212424
     62 C22        -3.4540   -3.1770   -2.9400 c         1 MOL      0.732947
     63 O11        -2.3910   -2.8410   -3.4950 o         1 MOL     -0.698723
     64 O12        -3.4250   -3.3290   -1.6960 o         1 MOL     -0.698723
     65 H26        -3.8730   -0.9080   -2.7730 hn        1 MOL      0.282740
     66 H27        -6.3830   -1.8110   -4.0850 h1        1 MOL      0.058286
     67 H28        -4.5230   -3.0140   -4.7320 hc        1 MOL      0.012376
     68 H29        -5.2300   -4.1310   -3.5030 hc        1 MOL      0.012376
     69 N6         -6.3120   -1.8970   -0.8300 n         1 MOL     -0.091205
     70 C23        -6.9520   -2.4250    0.4030 c3        1 MOL     -0.446135
     71 C24        -6.3810   -3.6750    1.0000 c         1 MOL      0.631774
     72 O13        -6.9390   -4.2500    1.9170 o         1 MOL     -0.605291
     73 H30        -5.5620   -1.2220   -0.7540 hn        1 MOL      0.241083
     74 H31        -7.9820   -2.6710    0.1510 h1        1 MOL      0.173719
     75 H32        -6.9390   -1.6640    1.1860 h1        1 MOL      0.173719
     76 N7         -5.2790   -4.1470    0.3970 n         1 MOL     -0.071089
     77 C25        -4.4420   -5.3820    0.6390 c3        1 MOL      0.074341
     78 C26        -3.7730   -5.4910    2.0380 c         1 MOL      0.504550
     79 O14        -3.5750   -6.6010    2.5480 o         1 MOL     -0.531121
     80 C27        -5.3720   -6.5860    0.1250 c3        1 MOL     -0.274651
     81 C28        -5.9500   -6.3380   -1.3150 c3        1 MOL      0.049614
     82 C29        -6.4590   -7.6400   -1.8980 c         1 MOL      0.615723
     83 N8         -7.1490   -7.5810   -3.0370 n         1 MOL     -0.830646
     84 O15        -6.2430   -8.7310   -1.4140 o         1 MOL     -0.566037
     85 H33        -5.1050   -3.7300   -0.5030 hn        1 MOL     -0.053418
     86 H34        -3.5750   -5.3440   -0.0140 h1        1 MOL      0.110349
     87 H35        -6.2120   -6.8510    0.7680 hc        1 MOL      0.077384
     88 H36        -4.7680   -7.4700   -0.0620 hc        1 MOL      0.077384
     89 H37        -5.1440   -6.0390   -1.9940 hc        1 MOL      0.050652
     90 H38        -6.7350   -5.5980   -1.3750 hc        1 MOL      0.050652
     91 H39        -7.2670   -6.7140   -3.5350 hn        1 MOL      0.354889
     92 H40        -7.5110   -8.4480   -3.4090 hn        1 MOL      0.354889
     93 N9         -3.3990   -4.3420    2.6130 n         1 MOL     -0.463813
     94 C30        -2.8860   -4.1120    3.9700 c3        1 MOL      0.068521
     95 C31        -1.5790   -3.3110    4.0320 c         1 MOL      0.421850
     96 O16        -0.8550   -3.4150    5.0540 o         1 MOL     -0.575693
     97 C32        -3.8910   -3.4450    4.9340 c3        1 MOL      0.221622
     98 C33        -4.5120   -2.1080    4.5340 c3        1 MOL     -0.233638
     99 C34        -5.0420   -4.3860    5.3110 c3        1 MOL     -0.233638
    100 H41        -3.5380   -3.5170    2.0600 hn        1 MOL      0.221765
    101 H42        -2.6080   -5.0600    4.4210 h1        1 MOL      0.082551
    102 H43        -3.3240   -3.2790    5.8530 hc        1 MOL     -0.032135
    103 H44        -5.2590   -2.2540    3.7680 hc        1 MOL      0.051086
    104 H45        -4.9560   -1.5930    5.3900 hc        1 MOL      0.051086
    105 H46        -3.7530   -1.4380    4.1200 hc        1 MOL      0.051086
    106 H47        -4.6170   -5.2890    5.7370 hc        1 MOL      0.051086
    107 H48        -5.7020   -3.9460    6.0550 hc        1 MOL      0.051086
    108 H49        -5.6430   -4.6110    4.4350 hc        1 MOL      0.051086
    109 N10        -1.2960   -2.5230    3.0330 n         1 MOL     -0.264258
    110 C35        -0.1400   -1.7030    2.9520 c3        1 MOL      0.316564
    111 C36         0.6360   -2.1880    1.6670 c         1 MOL      0.428575
    112 O17         0.0430   -2.5580    0.6740 o         1 MOL     -0.488233
    113 C37        -0.5270   -0.1780    2.8530 c3        1 MOL     -0.446948
    114 C38         0.7070    0.7070    2.7830 c         1 MOL      0.738467
    115 N11         0.7280    1.6300    1.8320 n         1 MOL     -0.741612
    116 O18         1.6300    0.5230    3.5840 o         1 MOL     -0.603780
    117 H50        -1.7720   -2.6350    2.1450 hn        1 MOL      0.206553
    118 H51         0.4850   -1.8160    3.8360 h1        1 MOL      0.024589
    119 H52        -1.1320    0.0930    3.7160 hc        1 MOL      0.124799
    120 H53        -1.0960   -0.0370    1.9330 hc        1 MOL      0.124799
    121 H54        -0.1530    1.7510    1.3350 hn        1 MOL      0.354255
    122 H55         1.5510    2.1430    1.5530 hn        1 MOL      0.354255
    123 N12         1.9730   -2.0320    1.6520 n         1 MOL     -0.602483
    124 C39         2.7730   -2.2220    0.4500 c3        1 MOL      0.421506
    125 C40         4.2770   -2.4140    0.7900 c         1 MOL      0.376551
    126 O19         4.7760   -1.8600    1.8270 o         1 MOL     -0.528279
    127 C41         2.6060   -1.0010   -0.4250 c3        1 MOL      0.030837
    128 C42         3.3840   -1.0270   -1.7070 ca        1 MOL      0.015585
    129 C43         4.1400    0.0760   -2.0510 ca        1 MOL     -0.182437
    130 C44         3.2920   -2.0980   -2.6700 ca        1 MOL     -0.182437
    131 C45         4.9060    0.0840   -3.1970 ca        1 MOL     -0.162745
    132 C46         3.9720   -2.0870   -3.8890 ca        1 MOL     -0.162745
    133 C47         4.7560   -0.9130   -4.2230 ca        1 MOL      0.112535
    134 O20         5.4390   -0.9070   -5.4140 oh        1 MOL     -0.418889
    135 H56         2.4610   -1.5040    2.3630 hn        1 MOL      0.273840
    136 H57         2.3910   -3.1000   -0.0730 h1        1 MOL      0.013048
    137 H58         2.8070   -0.0820    0.1250 hc        1 MOL      0.008658
    138 H59         1.5690   -0.9220   -0.7380 hc        1 MOL      0.008658
    139 H60         4.3660    0.8790   -1.3560 ha        1 MOL      0.131233
    140 H61         2.5410   -2.8640   -2.4950 ha        1 MOL      0.131233
    141 H62         5.5530    0.9330   -3.3660 ha        1 MOL      0.161747
    142 H63         3.8480   -2.8220   -4.6740 ha        1 MOL      0.161747
    143 H64         5.6620    0.0220   -5.5750 ho        1 MOL      0.322656
    144 N13         4.9700   -3.1210   -0.0710 n         1 MOL     -0.561298
    145 C48         6.4300   -3.3020    0.0650 c3        1 MOL      0.152474
    146 C49         7.1510   -2.8860   -1.2130 c         1 MOL      0.766534
    147 O21         7.1620   -3.5700   -2.2000 o         1 MOL     -0.504171
    148 C50         6.6630   -4.6980    0.6200 c3        1 MOL     -0.019770
    149 C51         8.1300   -5.1170    0.7180 c3        1 MOL     -0.237511
    150 C52         8.5710   -5.6800   -0.6690 c         1 MOL      0.657034
    151 O22         9.7010   -5.2980   -1.0990 o         1 MOL     -0.686287
    152 O23         7.8630   -6.5160   -1.2480 o         1 MOL     -0.686287
    153 H65         4.4390   -3.4510   -0.8610 hn        1 MOL      0.295546
    154 H66         6.6490   -2.6200    0.8850 h1        1 MOL      0.060158
    155 H67         6.1780   -5.4320   -0.0160 hc        1 MOL      0.026290
    156 H68         6.2410   -4.7530    1.6260 hc        1 MOL      0.026290
    157 H69         8.2420   -5.8540    1.5170 hc        1 MOL      0.038275
    158 H70         8.7700   -4.2880    1.0210 hc        1 MOL      0.038275
    159 N14         8.0540   -1.8390   -1.1890 n         1 MOL     -0.686730
    160 C53         8.0650   -0.6540   -0.3300 c3        1 MOL      0.087110
    161 C54         8.5540   -0.9150    1.1360 c         1 MOL      0.449567
    162 O24         9.5510   -1.5300    1.4300 o         1 MOL     -0.524804
    163 C55         8.8230    0.3290   -1.1670 c3        1 MOL     -0.026442
    164 C56         8.8400    1.6700   -0.4210 c3        1 MOL     -0.027896
    165 C57         7.4530    2.4270   -0.4700 c         1 MOL      0.395892
    166 O25         6.3970    1.8570   -0.1040 o         1 MOL     -0.587236
    167 O26         7.4700    3.5740   -0.9030 o         1 MOL     -0.587236
    168 H71         8.7900   -1.7940   -1.8670 hn        1 MOL      0.314113
    169 H72         7.0290   -0.3190   -0.3220 h1        1 MOL      0.022273
    170 H73         8.4160    0.3160   -2.1670 hc        1 MOL      0.043000
    171 H74         9.8530   -0.0210   -1.1270 hc        1 MOL      0.043000
    172 H75         9.6040    2.1870   -0.9960 hc        1 MOL     -0.003678
    173 H76         9.2020    1.5980    0.6040 hc        1 MOL     -0.003678
    174 N15         7.7580   -0.3570    2.0100 n         1 MOL     -0.179583
    175 C58         7.8930   -0.2580    3.4880 c3        1 MOL     -0.117910
    176 H77         8.9310   -0.4360    3.7700 h1        1 MOL      0.061657
    177 H78         7.5940    0.7370    3.8150 h1        1 MOL      0.061657
    178 H79         7.2550   -1.0040    3.9620 h1        1 MOL      0.061657
    179 H80         6.9160    0.0710    1.6590 hn        1 MOL      0.198050
    180 Ca1         5.0180    4.1220   -0.2550 Ca        1 MOL      1.703180
    181 O27         5.7990    6.1910   -1.9020 oh        1 MOL     -0.837522
    182 H81         6.5350    6.5490   -2.3870 ho        1 MOL      0.404640
    183 H82         5.0340    6.3990   -2.4300 ho        1 MOL      0.404640
    184 O28         5.0520    3.1350    2.2330 oh        1 MOL     -0.837522
    185 H83         4.5520    3.5500    2.9400 ho        1 MOL      0.404640
    186 H84         5.0020    2.1980    2.4300 ho        1 MOL      0.404640
    187 O29         5.0600    3.3750   -2.9140 oh        1 MOL     -0.837522
    188 H85         5.5440    3.4450   -3.7350 ho        1 MOL      0.404640
    189 H86         4.1580    3.1840   -3.1730 ho        1 MOL      0.404640
    190 O30         7.0030    5.2330    1.4460 oh        1 MOL     -0.837522
    191 H87         6.6250    5.5320    2.2680 ho        1 MOL      0.404640
    192 H88         7.6580    4.5860    1.7030 ho        1 MOL      0.404640
@<TRIPOS>BOND
     1    1    2 1   
     2    1    4 1   
     3    1    5 1   
     4    1    6 1   
     5    2    3 2   
     6    2    7 1   
     7    7    8 1   
     8    7   15 1   
     9    8    9 1   
    10    8   11 1   
    11    8   16 1   
    12    9   10 2   
    13    9   19 1   
    14   11   12 1   
    15   11   17 1   
    16   11   18 1   
    17   12   13 1   
    18   12   14 1   
    19   19   20 1   
    20   19   27 1   
    21   20   21 1   
    22   20   23 1   
    23   20   28 1   
    24   21   22 2   
    25   21   38 1   
    26   23   24 1   
    27   23   25 1   
    28   23   29 1   
    29   24   26 1   
    30   24   30 1   
    31   24   31 1   
    32   25   32 1   
    33   25   33 1   
    34   25   34 1   
    35   26   35 1   
    36   26   36 1   
    37   26   37 1   
    38   38   39 1   
    39   38   46 1   
    40   39   40 1   
    41   39   42 1   
    42   39   47 1   
    43   40   41 2   
    44   40   50 1   
    45   42   43 1   
    46   42   48 1   
    47   42   49 1   
    48   43   44 1   
    49   43   45 1   
    50   50   51 1   
    51   50   54 1   
    52   51   52 1   
    53   51   55 1   
    54   51   56 1   
    55   52   53 2   
    56   52   57 1   
    57   57   58 1   
    58   57   65 1   
    59   58   59 1   
    60   58   61 1   
    61   58   66 1   
    62   59   60 2   
    63   59   69 1   
    64   61   62 1   
    65   61   67 1   
    66   61   68 1   
    67   62   63 1   
    68   62   64 1   
    69   69   70 1   
    70   69   73 1   
    71   70   71 1   
    72   70   74 1   
    73   70   75 1   
    74   71   72 2   
    75   71   76 1   
    76   76   77 1   
    77   76   85 1   
    78   77   78 1   
    79   77   80 1   
    80   77   86 1   
    81   78   79 2   
    82   78   93 1   
    83   80   81 1   
    84   80   87 1   
    85   80   88 1   
    86   81   82 1   
    87   81   89 1   
    88   81   90 1   
    89   82   83 1   
    90   82   84 2   
    91   83   91 1   
    92   83   92 1   
    93   93   94 1   
    94   93  100 1   
    95   94   95 1   
    96   94   97 1   
    97   94  101 1   
    98   95   96 2   
    99   95  109 1   
   100   97   98 1   
   101   97   99 1   
   102   97  102 1   
   103   98  103 1   
   104   98  104 1   
   105   98  105 1   
   106   99  106 1   
   107   99  107 1   
   108   99  108 1   
   109  109  110 1   
   110  109  117 1   
   111  110  111 1   
   112  110  113 1   
   113  110  118 1   
   114  111  112 2   
   115  111  123 1   
   116  113  114 1   
   117  113  119 1   
   118  113  120 1   
   119  114  115 1   
   120  114  116 2   
   121  115  121 1   
   122  115  122 1   
   123  123  124 1   
   124  123  135 1   
   125  124  125 1   
   126  124  127 1   
   127  124  136 1   
   128  125  126 2   
   129  125  144 1   
   130  127  128 1   
   131  127  137 1   
   132  127  138 1   
   133  128  129 ar  
   134  128  130 ar  
   135  129  131 ar  
   136  129  139 1   
   137  130  132 ar  
   138  130  140 1   
   139  131  133 ar  
   140  131  141 1   
   141  132  133 ar  
   142  132  142 1   
   143  133  134 1   
   144  134  143 1   
   145  144  145 1   
   146  144  153 1   
   147  145  146 1   
   148  145  148 1   
   149  145  154 1   
   150  146  147 2   
   151  146  159 1   
   152  148  149 1   
   153  148  155 1   
   154  148  156 1   
   155  149  150 1   
   156  149  157 1   
   157  149  158 1   
   158  150  151 1   
   159  150  152 1   
   160  159  160 1   
   161  159  168 1   
   162  160  161 1   
   163  160  163 1   
   164  160  169 1   
   165  161  162 2   
   166  161  174 1   
   167  163  164 1   
   168  163  170 1   
   169  163  171 1   
   170  164  165 1   
   171  164  172 1   
   172  164  173 1   
   173  165  166 1   
   174  165  167 1   
   175  174  175 1   
   176  174  179 1   
   177  175  176 1   
   178  175  177 1   
   179  175  178 1   
   180  181  182 1   
   181  181  183 1   
   182  184  185 1   
   183  184  186 1   
   184  187  188 1   
   185  187  189 1   
   186  190  191 1   
   187  190  192 1   
@<TRIPOS>SUBSTRUCTURE
     1 MOL         1 TEMP              0 ****  ****    0 ROOT
