@<TRIPOS>MOLECULE
MOL
  178   175     1     0     0
SMALL
resp


@<TRIPOS>ATOM
      1 C1          2.5130   -0.1690    3.9990 c3        1 MOL     -0.143964
      2 C2          3.9130    0.2900    3.4530 c         1 MOL      0.625219
      3 O1          3.9740    1.0250    2.4510 o         1 MOL     -0.550383
      4 H1          2.6550   -0.7940    4.8820 hc        1 MOL      0.024978
      5 H2          1.9210    0.7070    4.2660 hc        1 MOL      0.024978
      6 H3          1.9920   -0.7400    3.2300 hc        1 MOL      0.024978
      7 N1          5.0040   -0.2990    3.9860 n         1 MOL     -0.523691
      8 C3          6.3000   -0.5480    3.2180 c3        1 MOL      0.112823
      9 C4          6.1770   -1.7130    2.2890 c         1 MOL      0.782753
     10 O2          7.0520   -1.8940    1.5020 o         1 MOL     -0.619442
     11 C5          7.5710   -0.5160    4.0930 c3        1 MOL     -0.308130
     12 C6          7.6140    0.6820    4.9500 c         1 MOL      0.696035
     13 O3          8.4110    0.6900    5.9320 o         1 MOL     -0.701189
     14 O4          7.0210    1.7690    4.6700 o         1 MOL     -0.701189
     15 H4          4.8500   -0.8790    4.8020 hn        1 MOL      0.276315
     16 H5          6.4010    0.3720    2.6550 h1        1 MOL      0.092248
     17 H6          8.3570   -0.5270    3.3370 hc        1 MOL      0.075256
     18 H7          7.7060   -1.3820    4.7380 hc        1 MOL      0.075256
     19 N2          5.1420   -2.5420    2.3380 n         1 MOL     -0.774949
     20 C7          4.9440   -3.6950    1.4580 c3        1 MOL      0.454137
     21 C8          4.6620   -3.3110   -0.0080 c         1 MOL      0.303742
     22 O5          3.5060   -3.5810   -0.5250 o         1 MOL     -0.505385
     23 C9          6.1310   -4.6370    1.6340 c3        1 MOL     -0.471101
     24 H8          4.6550   -2.5090    3.2250 hn        1 MOL      0.326426
     25 H9          4.0220   -4.2120    1.7100 h1        1 MOL      0.035660
     26 H10         6.2250   -4.7980    2.7120 hc        1 MOL      0.115929
     27 H11         5.9240   -5.5680    1.1020 hc        1 MOL      0.115929
     28 H12         7.0540   -4.1540    1.3190 hc        1 MOL      0.115929
     29 N3          5.6440   -2.7120   -0.6680 n         1 MOL     -0.328808
     30 C10         5.6140   -2.2640   -2.0370 c3        1 MOL      0.079762
     31 C11         5.9500   -0.7700   -2.0780 c         1 MOL      0.573558
     32 O6          6.0870   -0.2140   -3.1890 o         1 MOL     -0.575380
     33 C12         6.5050   -3.1710   -2.8800 c3        1 MOL     -0.339995
     34 C13         8.0100   -3.1950   -2.4640 c         1 MOL      0.735303
     35 O7          8.8140   -2.3780   -3.0060 o         1 MOL     -0.713260
     36 O8          8.3760   -3.9470   -1.5840 o         1 MOL     -0.713260
     37 H13         6.4290   -2.6450   -0.0350 hn        1 MOL      0.359029
     38 H14         4.6370   -2.1870   -2.5250 h1        1 MOL      0.093882
     39 H15         6.5190   -2.8710   -3.9290 hc        1 MOL      0.044625
     40 H16         6.0230   -4.1440   -2.8370 hc        1 MOL      0.044625
     41 N4          5.9070   -0.0700   -0.9460 n         1 MOL     -0.227010
     42 C14         6.1670    1.3740   -0.8270 c3        1 MOL     -0.055710
     43 C15         5.0420    2.2250   -1.4310 c         1 MOL      0.616276
     44 O9          5.3760    3.2590   -1.9880 o         1 MOL     -0.600418
     45 H17         5.7070   -0.6670   -0.1620 hn        1 MOL      0.109762
     46 H18         7.0860    1.6890   -1.3070 h1        1 MOL      0.086878
     47 H19         6.2440    1.6220    0.2260 h1        1 MOL      0.086878
     48 N5          3.7610    1.9780   -1.3600 n         1 MOL     -0.322998
     49 C16         2.6090    2.5510   -2.0920 c3        1 MOL     -0.135128
     50 C17         2.1500    3.9160   -1.5370 c         1 MOL      0.671013
     51 O10         1.9730    4.0400   -0.3260 o         1 MOL     -0.499695
     52 C18         1.5650    1.4290   -2.3190 c3        1 MOL     -0.470266
     53 C19         2.1630    0.3480   -3.1100 c         1 MOL      0.723589
     54 N6          2.7390    0.6510   -4.2990 n         1 MOL     -0.739970
     55 O11         2.2820   -0.7760   -2.6910 o         1 MOL     -0.658077
     56 H20         3.5580    1.1730   -0.7880 hn        1 MOL      0.226667
     57 H21         3.0190    2.9100   -3.0340 h1        1 MOL      0.059813
     58 H22         0.6480    1.8510   -2.7270 hc        1 MOL      0.226882
     59 H23         1.2520    1.0300   -1.3500 hc        1 MOL      0.226882
     60 H24         2.5380    1.5460   -4.7390 hn        1 MOL      0.351134
     61 H25         3.2700   -0.0310   -4.8150 hn        1 MOL      0.351134
     62 N7          1.9270    4.8340   -2.4580 n         1 MOL     -0.444883
     63 C20         1.5800    6.2300   -2.1410 c3        1 MOL     -0.169729
     64 C21         0.0820    6.5580   -1.8920 c         1 MOL      0.609594
     65 O12        -0.7720    5.9950   -2.5900 o         1 MOL     -0.524423
     66 H26         2.1670    4.6610   -3.4290 hn        1 MOL      0.307013
     67 H27         2.0070    6.8340   -2.9440 h1        1 MOL      0.113622
     68 H28         2.1220    6.5870   -1.2730 h1        1 MOL      0.113622
     69 N8         -0.2190    7.4950   -0.9930 n         1 MOL     -0.585967
     70 C22        -1.6500    7.9320   -0.7520 c3        1 MOL     -0.107348
     71 C23        -2.6170    6.7650   -0.1900 c         1 MOL      0.359702
     72 O13        -3.7710    6.9940    0.0220 o         1 MOL     -0.531824
     73 C24        -1.9020    9.3000   -0.0430 c3        1 MOL      0.471859
     74 C25        -1.7450    9.1740    1.5200 c3        1 MOL     -0.318372
     75 O14        -0.9290   10.2190   -0.5400 oh        1 MOL     -0.639705
     76 H29         0.4650    7.8030   -0.3140 hn        1 MOL      0.317735
     77 H30        -2.0260    8.1540   -1.7530 h1        1 MOL      0.132023
     78 H31        -2.9290    9.5930   -0.2590 h1        1 MOL      0.027063
     79 H32        -0.0920    9.8450   -0.2610 ho        1 MOL      0.385088
     80 H33        -2.6780    8.7590    1.9230 hc        1 MOL      0.070306
     81 H34        -0.9510    8.5010    1.8300 hc        1 MOL      0.070306
     82 H35        -1.6290   10.1270    2.0360 hc        1 MOL      0.070306
     83 N9         -2.0530    5.5860   -0.0270 n         1 MOL     -0.010394
     84 C26        -2.6750    4.4090    0.4650 c3        1 MOL      0.017455
     85 C27        -2.1780    3.1890   -0.2000 c         1 MOL      0.389492
     86 O15        -1.1850    3.1870   -0.9860 o         1 MOL     -0.429020
     87 C28        -2.5180    4.3480    2.0340 c3        1 MOL      0.032441
     88 C29        -1.2930    3.5870    2.6160 c3        1 MOL      0.126198
     89 C30        -2.4840    5.7580    2.6820 c3        1 MOL     -0.298274
     90 C31         0.0530    4.2860    2.3390 c3        1 MOL      0.022702
     91 H36        -1.2020    5.4690   -0.5650 hn        1 MOL      0.112740
     92 H37        -3.7260    4.4980    0.1930 h1        1 MOL      0.051217
     93 H38        -3.4140    3.8370    2.3870 hc        1 MOL     -0.021082
     94 H39        -1.3520    2.6150    2.1290 hc        1 MOL     -0.037232
     95 H40        -1.3850    3.4160    3.6860 hc        1 MOL     -0.037232
     96 H41        -3.4540    6.2680    2.5940 hc        1 MOL      0.076061
     97 H42        -2.3550    5.6630    3.7600 hc        1 MOL      0.076061
     98 H43        -1.8010    6.4690    2.2230 hc        1 MOL      0.076061
     99 H44         0.1160    5.1290    3.0300 hc        1 MOL     -0.004196
    100 H45         0.9340    3.6510    2.4710 hc        1 MOL     -0.004196
    101 H46         0.1440    4.5720    1.2900 hc        1 MOL     -0.004196
    102 N10        -2.8440    2.0860    0.1160 n         1 MOL     -0.489315
    103 C32        -2.5610    0.7700   -0.4980 c3        1 MOL      0.161046
    104 C33        -3.7030   -0.2640   -0.6020 c         1 MOL      0.448211
    105 O16        -3.4470   -1.4770   -0.5490 o         1 MOL     -0.393095
    106 C34        -1.2760    0.2030    0.1670 c3        1 MOL     -0.136615
    107 C35        -0.5430   -0.9130   -0.5460 c         1 MOL      0.458740
    108 O17         0.4620   -1.3330    0.0670 o         1 MOL     -0.682843
    109 O18        -0.6980   -1.1660   -1.7180 o         1 MOL     -0.682843
    110 H47        -3.7450    2.3420    0.4990 hn        1 MOL      0.288270
    111 H48        -2.3020    0.9510   -1.5460 h1        1 MOL      0.033689
    112 H49        -1.5850   -0.0990    1.1670 hc        1 MOL      0.110496
    113 H50        -0.5680    1.0140    0.2990 hc        1 MOL      0.110496
    114 N11        -4.9560    0.2200   -0.6040 n         1 MOL     -0.418629
    115 C36        -6.1350   -0.6820   -0.7060 c3        1 MOL      0.109915
    116 C37        -6.3010   -1.7550    0.3120 c         1 MOL      0.223244
    117 O19        -6.3380   -1.4220    1.4550 o         1 MOL     -0.471806
    118 C38        -7.3700    0.2210   -0.7800 c3        1 MOL     -0.204400
    119 C39        -8.6800   -0.4820   -1.0570 ca        1 MOL      0.039947
    120 C40        -8.9560   -0.8940   -2.3270 ca        1 MOL     -0.109011
    121 C41        -9.5990   -0.6840    0.0580 ca        1 MOL     -0.109011
    122 C42       -10.1760   -1.5730   -2.5830 ca        1 MOL     -0.209900
    123 C43       -10.8170   -1.3270   -0.2210 ca        1 MOL     -0.209900
    124 C44       -11.0570   -1.8200   -1.4550 ca        1 MOL      0.006575
    125 H51        -5.2080    1.1960   -0.5160 hn        1 MOL      0.253466
    126 H52        -6.0360   -1.1130   -1.6960 h1        1 MOL      0.031970
    127 H53        -7.3220    1.0850   -1.4330 hc        1 MOL      0.097622
    128 H54        -7.5150    0.7870    0.1520 hc        1 MOL      0.097622
    129 H55        -8.1890   -0.7580   -3.0810 ha        1 MOL      0.120451
    130 H56        -9.4510   -0.3550    1.0730 ha        1 MOL      0.120451
    131 H57       -10.2860   -2.0350   -3.5520 ha        1 MOL      0.129392
    132 H58       -11.5220   -1.5120    0.5810 ha        1 MOL      0.129392
    133 H59       -11.9990   -2.3080   -1.6510 ha        1 MOL      0.063383
    134 N12        -6.4940   -3.0390    0.0570 n         1 MOL      0.154030
    135 C45        -6.6990   -4.0400    1.1410 c3        1 MOL      0.057283
    136 C46        -5.5560   -4.2910    2.1790 c         1 MOL      0.279649
    137 O20        -5.8140   -4.6040    3.3490 o         1 MOL     -0.508568
    138 C47        -6.9940   -5.3850    0.3970 c3        1 MOL     -0.067039
    139 C48        -6.6910   -5.1770   -1.0810 c3        1 MOL      0.024431
    140 C49        -6.7010   -3.6730   -1.2210 c3        1 MOL     -0.186633
    141 H60        -7.5810   -3.8410    1.7490 h1        1 MOL      0.036563
    142 H61        -6.4200   -6.1850    0.8520 hc        1 MOL      0.031907
    143 H62        -8.0580   -5.5970    0.4910 hc        1 MOL      0.031907
    144 H63        -5.6740   -5.4960   -1.2910 hc        1 MOL      0.015650
    145 H64        -7.3390   -5.7740   -1.7200 hc        1 MOL      0.015650
    146 H65        -5.8980   -3.3630   -1.8890 h1        1 MOL      0.062066
    147 H66        -7.6980   -3.3850   -1.5330 h1        1 MOL      0.062066
    148 N13        -4.4170   -3.9050    1.6750 n         1 MOL     -0.045728
    149 C50        -3.2150   -3.7540    2.5050 c3        1 MOL     -0.339561
    150 C51        -3.3330   -2.5810    3.5890 c         1 MOL      0.524974
    151 O21        -2.6380   -2.6040    4.5910 o         1 MOL     -0.530274
    152 C52        -2.0090   -3.6170    1.5800 c3        1 MOL      0.031321
    153 C53        -1.6460   -4.8250    0.7660 c3        1 MOL     -0.012597
    154 C54        -0.4650   -4.6370   -0.2140 c         1 MOL      0.709932
    155 O22         0.7190   -4.6620    0.1800 o         1 MOL     -0.732635
    156 O23        -0.7730   -4.4270   -1.3950 o         1 MOL     -0.732635
    157 H67        -4.4840   -3.6630    0.6980 hn        1 MOL      0.184788
    158 H68        -3.0690   -4.7260    2.9900 h1        1 MOL      0.162196
    159 H69        -1.1440   -3.4780    2.2280 hc        1 MOL      0.051761
    160 H70        -2.1310   -2.7520    0.9100 hc        1 MOL      0.051761
    161 H71        -2.5260   -5.1690    0.2170 hc        1 MOL     -0.038044
    162 H72        -1.4230   -5.6700    1.3990 hc        1 MOL     -0.038044
    163 N14        -4.2860   -1.6580    3.4210 n         1 MOL     -0.126213
    164 C55        -4.5630   -0.4990    4.2090 c3        1 MOL     -0.302090
    165 H73        -3.7130    0.1810    4.1640 h1        1 MOL      0.109667
    166 H74        -5.4490    0.0020    3.8210 h1        1 MOL      0.109667
    167 H75        -4.7360   -0.7950    5.2440 h1        1 MOL      0.109667
    168 H76        -4.7330   -1.6230    2.5150 hn        1 MOL      0.155335
    169 Ca1         1.2650   -2.9490   -2.0200 Ca        1 MOL      1.658846
    170 O24         0.1350   -3.0830   -4.2840 oh        1 MOL     -0.763283
    171 H77         0.4880   -3.0970   -5.1670 ho        1 MOL      0.379051
    172 H78        -0.8190   -3.1020   -4.4000 ho        1 MOL      0.379051
    173 O25         1.9020   -5.6070   -2.4960 oh        1 MOL     -0.763283
    174 H79         1.3970   -5.8490   -3.2750 ho        1 MOL      0.379051
    175 H80         2.7950   -5.9020   -2.6830 ho        1 MOL      0.379051
    176 O26         2.9650   -3.2480   -4.1460 oh        1 MOL     -0.763283
    177 H81         3.6030   -3.8840   -4.4650 ho        1 MOL      0.379051
    178 H82         2.6420   -2.8170   -4.9410 ho        1 MOL      0.379051
@<TRIPOS>BOND
     1    1    2 1   
     2    1    4 1   
     3    1    5 1   
     4    1    6 1   
     5    2    3 2   
     6    2    7 1   
     7    7    8 1   
     8    7   15 1   
     9    8    9 1   
    10    8   11 1   
    11    8   16 1   
    12    9   10 2   
    13    9   19 1   
    14   11   12 1   
    15   11   17 1   
    16   11   18 1   
    17   12   13 1   
    18   12   14 1   
    19   19   20 1   
    20   19   24 1   
    21   20   21 1   
    22   20   23 1   
    23   20   25 1   
    24   21   22 2   
    25   21   29 1   
    26   23   26 1   
    27   23   27 1   
    28   23   28 1   
    29   29   30 1   
    30   29   37 1   
    31   30   31 1   
    32   30   33 1   
    33   30   38 1   
    34   31   32 2   
    35   31   41 1   
    36   33   34 1   
    37   33   39 1   
    38   33   40 1   
    39   34   35 1   
    40   34   36 1   
    41   41   42 1   
    42   41   45 1   
    43   42   43 1   
    44   42   46 1   
    45   42   47 1   
    46   43   44 2   
    47   43   48 1   
    48   48   49 1   
    49   48   56 1   
    50   49   50 1   
    51   49   52 1   
    52   49   57 1   
    53   50   51 2   
    54   50   62 1   
    55   52   53 1   
    56   52   58 1   
    57   52   59 1   
    58   53   54 1   
    59   53   55 2   
    60   54   60 1   
    61   54   61 1   
    62   62   63 1   
    63   62   66 1   
    64   63   64 1   
    65   63   67 1   
    66   63   68 1   
    67   64   65 2   
    68   64   69 1   
    69   69   70 1   
    70   69   76 1   
    71   70   71 1   
    72   70   73 1   
    73   70   77 1   
    74   71   72 2   
    75   71   83 1   
    76   73   74 1   
    77   73   75 1   
    78   73   78 1   
    79   74   80 1   
    80   74   81 1   
    81   74   82 1   
    82   75   79 1   
    83   83   84 1   
    84   83   91 1   
    85   84   85 1   
    86   84   87 1   
    87   84   92 1   
    88   85   86 2   
    89   85  102 1   
    90   87   88 1   
    91   87   89 1   
    92   87   93 1   
    93   88   90 1   
    94   88   94 1   
    95   88   95 1   
    96   89   96 1   
    97   89   97 1   
    98   89   98 1   
    99   90   99 1   
   100   90  100 1   
   101   90  101 1   
   102  102  103 1   
   103  102  110 1   
   104  103  104 1   
   105  103  106 1   
   106  103  111 1   
   107  104  105 2   
   108  104  114 1   
   109  106  107 1   
   110  106  112 1   
   111  106  113 1   
   112  107  108 1   
   113  107  109 1   
   114  114  115 1   
   115  114  125 1   
   116  115  116 1   
   117  115  118 1   
   118  115  126 1   
   119  116  117 2   
   120  116  134 1   
   121  118  119 1   
   122  118  127 1   
   123  118  128 1   
   124  119  120 ar  
   125  119  121 ar  
   126  120  122 ar  
   127  120  129 1   
   128  121  123 ar  
   129  121  130 1   
   130  122  124 ar  
   131  122  131 1   
   132  123  124 ar  
   133  123  132 1   
   134  124  133 1   
   135  134  135 1   
   136  134  140 1   
   137  135  136 1   
   138  135  138 1   
   139  135  141 1   
   140  136  137 2   
   141  136  148 1   
   142  138  139 1   
   143  138  142 1   
   144  138  143 1   
   145  139  140 1   
   146  139  144 1   
   147  139  145 1   
   148  140  146 1   
   149  140  147 1   
   150  148  149 1   
   151  148  157 1   
   152  149  150 1   
   153  149  152 1   
   154  149  158 1   
   155  150  151 2   
   156  150  163 1   
   157  152  153 1   
   158  152  159 1   
   159  152  160 1   
   160  153  154 1   
   161  153  161 1   
   162  153  162 1   
   163  154  155 1   
   164  154  156 1   
   165  163  164 1   
   166  163  168 1   
   167  164  165 1   
   168  164  166 1   
   169  164  167 1   
   170  170  171 1   
   171  170  172 1   
   172  173  174 1   
   173  173  175 1   
   174  176  177 1   
   175  176  178 1   
@<TRIPOS>SUBSTRUCTURE
     1 MOL         1 TEMP              0 ****  ****    0 ROOT
