@<TRIPOS>MOLECULE
MOL
  181   177     1     0     0
SMALL
resp


@<TRIPOS>ATOM
      1 C1          4.6440   -4.5230    4.7520 c3        1 MOL     -0.379861
      2 C2          4.5490   -3.0430    4.4360 c         1 MOL      0.707342
      3 O1          3.5540   -2.4200    4.7840 o         1 MOL     -0.606813
      4 H1          5.6870   -4.7920    4.9200 hc        1 MOL      0.096532
      5 H2          4.0630   -4.7430    5.6470 hc        1 MOL      0.096532
      6 H3          4.2530   -5.1000    3.9140 hc        1 MOL      0.096532
      7 N1          5.4500   -2.3660    3.7280 n         1 MOL     -0.399442
      8 C3          6.6790   -2.9620    3.1540 c3        1 MOL     -0.149123
      9 C4          6.5570   -3.5500    1.6760 c         1 MOL      0.769151
     10 O2          5.8280   -2.9630    0.9170 o         1 MOL     -0.692362
     11 C5          7.8110   -1.9240    3.2190 c3        1 MOL     -0.037257
     12 C6          7.3780   -0.4930    2.8510 c         1 MOL      0.678953
     13 O3          8.0900    0.4130    3.2430 o         1 MOL     -0.652048
     14 O4          6.3340   -0.3360    2.1630 o         1 MOL     -0.652048
     15 H4          5.3970   -1.3610    3.6600 hn        1 MOL      0.231226
     16 H5          6.9340   -3.8470    3.7390 h1        1 MOL      0.052019
     17 H6          8.6110   -2.2310    2.5340 hc        1 MOL      0.011817
     18 H7          8.2670   -1.9330    4.2030 hc        1 MOL      0.011817
     19 N2          7.3130   -4.6190    1.3610 n         1 MOL     -0.608324
     20 C7          7.5570   -5.1830    0.0590 c3        1 MOL      0.347241
     21 C8          8.2510   -4.3610   -0.9810 c         1 MOL      0.359736
     22 O5          8.6460   -4.7760   -2.0080 o         1 MOL     -0.525534
     23 C9          6.2460   -5.7810   -0.4560 c3        1 MOL     -0.485143
     24 H8          7.7600   -5.1590    2.0770 hn        1 MOL      0.300361
     25 H9          8.2800   -5.9950    0.1690 h1        1 MOL      0.021070
     26 H10         5.6000   -5.0040   -0.8550 hc        1 MOL      0.139777
     27 H11         6.5460   -6.3170   -1.3510 hc        1 MOL      0.139777
     28 H12         5.6780   -6.2470    0.3540 hc        1 MOL      0.139777
     29 N3          8.3540   -3.0940   -0.7600 n         1 MOL     -0.150781
     30 C10         9.0420   -2.1470   -1.7260 c3        1 MOL      0.019319
     31 C11         9.4660   -0.7310   -1.1590 c         1 MOL      0.288524
     32 O6          8.9790   -0.2600   -0.1090 o         1 MOL     -0.297132
     33 C12         8.1690   -1.8920   -2.9480 c3        1 MOL      0.037196
     34 C13         6.7340   -1.4790   -2.6470 c         1 MOL      0.755795
     35 O7          6.5130   -0.8300   -1.6250 o         1 MOL     -0.745368
     36 O8          5.8200   -1.8530   -3.4370 o         1 MOL     -0.745368
     37 H13         7.8400   -2.8090    0.0660 hn        1 MOL      0.054147
     38 H14         9.9560   -2.5760   -2.1330 h1        1 MOL      0.052032
     39 H15         8.1460   -2.8170   -3.5230 hc        1 MOL      0.006920
     40 H16         8.5810   -1.2490   -3.7230 hc        1 MOL      0.006920
     41 N4         10.4170   -0.0340   -1.8970 n         1 MOL     -0.394862
     42 C14        10.7540    1.3870   -1.6870 c3        1 MOL     -0.142064
     43 C15         9.6370    2.4270   -1.8830 c         1 MOL      0.493920
     44 O9          9.9380    3.5510   -2.2160 o         1 MOL     -0.568999
     45 H17        10.8580   -0.5520   -2.6400 hn        1 MOL      0.291415
     46 H18        11.6160    1.6900   -2.2750 h1        1 MOL      0.117528
     47 H19        11.0430    1.4400   -0.6310 h1        1 MOL      0.117528
     48 N5          8.3880    2.0410   -1.7850 n         1 MOL     -0.132616
     49 C16         7.2130    2.8280   -2.0080 c3        1 MOL      0.032308
     50 C17         6.1780    2.6630   -0.8180 c         1 MOL      0.693051
     51 O10         6.0400    1.6630   -0.1570 o         1 MOL     -0.653564
     52 C18         6.7120    2.6110   -3.4220 c3        1 MOL     -0.054319
     53 C19         5.2420    2.3260   -3.4330 c         1 MOL      0.459996
     54 N6          4.8010    1.0720   -3.5020 n         1 MOL     -0.646547
     55 O11         4.4960    3.3190   -3.3220 o         1 MOL     -0.529252
     56 H20         8.2310    1.1200   -1.4080 hn        1 MOL      0.039418
     57 H21         7.4870    3.8800   -1.9200 h1        1 MOL      0.064681
     58 H22         7.2740    1.8140   -3.9050 hc        1 MOL      0.037835
     59 H23         6.9380    3.4740   -4.0430 hc        1 MOL      0.037835
     60 H24         5.4570    0.3090   -3.5130 hn        1 MOL      0.338216
     61 H25         3.8170    1.0290   -3.7400 hn        1 MOL      0.338216
     62 N7          5.3710    3.7010   -0.6660 n         1 MOL     -0.640095
     63 C20         4.0300    3.6600    0.0560 c3        1 MOL      0.371787
     64 C21         3.1040    4.9200   -0.1550 c         1 MOL      0.457149
     65 O12         3.4540    5.7820   -0.9450 o         1 MOL     -0.519802
     66 H26         5.4520    4.4400   -1.3430 hn        1 MOL      0.308852
     67 H27         4.0810    3.5730    1.1410 h1        1 MOL     -0.016354
     68 H28         3.5720    2.7550   -0.3360 h1        1 MOL     -0.016354
     69 N8          1.8930    5.0530    0.4130 n         1 MOL     -0.449700
     70 C22         1.1370    4.1300    1.2820 c3        1 MOL      0.092920
     71 C23        -0.2360    3.7430    0.7740 c         1 MOL      0.394678
     72 O13        -0.7750    4.5420    0.0120 o         1 MOL     -0.480633
     73 C24         0.9220    4.7820    2.6490 c3        1 MOL      0.321638
     74 C25         2.2200    4.9850    3.3550 c3        1 MOL     -0.352956
     75 O14         0.2280    6.0140    2.5660 oh        1 MOL     -0.591200
     76 H29         1.3990    5.8630    0.0710 hn        1 MOL      0.339435
     77 H30         1.6730    3.1900    1.4130 h1        1 MOL     -0.024770
     78 H31         0.3350    4.1030    3.2580 h1        1 MOL      0.017502
     79 H32        -0.1270    6.1660    3.4430 ho        1 MOL      0.402378
     80 H33         2.9410    5.6200    2.8270 hc        1 MOL      0.080383
     81 H34         2.0550    5.3020    4.3880 hc        1 MOL      0.080383
     82 H35         2.7300    4.0290    3.3700 hc        1 MOL      0.080383
     83 N9         -0.7570    2.6230    1.2250 n         1 MOL     -0.236932
     84 C26        -2.0260    2.0610    0.7820 c3        1 MOL     -0.040783
     85 C27        -2.9350    1.6100    1.9980 c         1 MOL      0.449003
     86 O15        -2.4300    1.2760    3.0940 o         1 MOL     -0.574170
     87 C28        -1.7940    0.9500   -0.3170 c3        1 MOL      0.030773
     88 C29        -0.9610   -0.1500    0.2480 c3        1 MOL      0.107177
     89 C30        -1.2490    1.6160   -1.6110 c3        1 MOL     -0.627318
     90 C31        -0.7830   -1.3470   -0.6690 c3        1 MOL      0.038980
     91 H36        -0.3850    2.1360    2.0240 hn        1 MOL      0.194328
     92 H37        -2.6440    2.7730    0.2460 h1        1 MOL      0.148796
     93 H38        -2.7450    0.4930   -0.5710 hc        1 MOL      0.055226
     94 H39        -1.4380   -0.5400    1.1480 hc        1 MOL     -0.026530
     95 H40        -0.0250    0.2580    0.6230 hc        1 MOL     -0.026530
     96 H41        -1.4580    0.9200   -2.4210 hc        1 MOL      0.170876
     97 H42        -1.9670    2.4220   -1.7620 hc        1 MOL      0.170876
     98 H43        -0.2640    2.0670   -1.5030 hc        1 MOL      0.170876
     99 H44        -1.7480   -1.5130   -1.1460 hc        1 MOL     -0.025967
    100 H45        -0.1120   -1.0250   -1.4700 hc        1 MOL     -0.025967
    101 H46        -0.3210   -2.2100   -0.1730 hc        1 MOL     -0.025967
    102 N10        -4.2570    1.6680    1.8880 n         1 MOL     -0.364318
    103 C32        -5.0990    2.0960    0.7490 c3        1 MOL      0.022485
    104 C33        -6.4690    1.3890    0.7870 c         1 MOL      0.459522
    105 O16        -6.8470    0.8290    1.7900 o         1 MOL     -0.481075
    106 C34        -5.3120    3.6620    0.7520 c3        1 MOL     -0.085784
    107 C35        -5.7020    4.1340    2.1360 c         1 MOL      0.756379
    108 O17        -6.7870    3.9430    2.6850 o         1 MOL     -0.735530
    109 O18        -4.8900    4.8510    2.7670 o         1 MOL     -0.735530
    110 H47        -4.6810    1.3900    2.7650 hn        1 MOL      0.316291
    111 H48        -4.6210    1.8560   -0.2010 h1        1 MOL      0.059590
    112 H49        -6.1540    3.9340    0.1040 hc        1 MOL     -0.017863
    113 H50        -4.4610    4.2940    0.4940 hc        1 MOL     -0.017863
    114 N11        -7.1940    1.3500   -0.3800 n         1 MOL     -0.533560
    115 C36        -8.5130    0.7510   -0.5780 c3        1 MOL      0.415578
    116 C37        -8.6480    0.2240   -2.0630 c         1 MOL      0.130872
    117 O19        -8.1010    0.8850   -2.9390 o         1 MOL     -0.460592
    118 C38        -9.5530    1.7550   -0.1780 c3        1 MOL     -0.150119
    119 C39       -11.0120    1.2620   -0.2010 ca        1 MOL      0.118325
    120 C40       -11.7440    1.1980   -1.4040 ca        1 MOL     -0.207347
    121 C41       -11.5890    0.9260    1.0290 ca        1 MOL     -0.207347
    122 C42       -13.0730    0.6950   -1.3300 ca        1 MOL     -0.078430
    123 C43       -12.8650    0.3290    1.0590 ca        1 MOL     -0.078430
    124 C44       -13.6170    0.2580   -0.1310 ca        1 MOL     -0.178175
    125 H51        -6.6810    1.5190   -1.2320 hn        1 MOL      0.297480
    126 H52        -8.5800   -0.0640    0.1390 h1        1 MOL      0.015859
    127 H53        -9.5290    2.4790   -0.9890 hc        1 MOL      0.056126
    128 H54        -9.3040    2.2900    0.7420 hc        1 MOL      0.056126
    129 H55       -11.4080    1.5110   -2.3870 ha        1 MOL      0.150219
    130 H56       -10.9700    0.9950    1.9200 ha        1 MOL      0.150219
    131 H57       -13.7490    0.6920   -2.1720 ha        1 MOL      0.091320
    132 H58       -13.3070    0.0210    1.9930 ha        1 MOL      0.091320
    133 H59       -14.6450   -0.0710   -0.0270 ha        1 MOL      0.099221
    134 N12        -9.1820   -0.9760   -2.3110 n         1 MOL      0.133544
    135 C45        -9.9380   -1.8070   -1.3740 c3        1 MOL      0.011772
    136 C46        -9.0920   -2.3940   -0.2740 c         1 MOL      0.393056
    137 O20        -9.3520   -2.1750    0.8360 o         1 MOL     -0.545462
    138 C47       -10.5950   -2.9260   -2.2300 c3        1 MOL     -0.086365
    139 C48       -10.6430   -2.3340   -3.6640 c3        1 MOL      0.215278
    140 C49        -9.3470   -1.4420   -3.6890 c3        1 MOL     -0.351417
    141 H60       -10.7980   -1.2820   -0.9680 h1        1 MOL      0.070372
    142 H61        -9.9560   -3.8190   -2.2410 hc        1 MOL      0.020012
    143 H62       -11.6040   -3.1400   -1.9010 hc        1 MOL      0.020012
    144 H63       -10.6940   -3.0760   -4.4560 hc        1 MOL     -0.060339
    145 H64       -11.4710   -1.6250   -3.6750 hc        1 MOL     -0.060339
    146 H65        -8.4730   -1.9970   -4.0220 h1        1 MOL      0.136895
    147 H66        -9.5240   -0.6740   -4.4410 h1        1 MOL      0.136895
    148 N13        -7.9170   -2.9210   -0.5870 n         1 MOL     -0.125646
    149 C50        -6.9590   -3.3920    0.3710 c3        1 MOL      0.006898
    150 C51        -7.2090   -4.8520    0.7460 c         1 MOL      0.351778
    151 O21        -7.0390   -5.7620   -0.0380 o         1 MOL     -0.546235
    152 C52        -5.5210   -3.1960   -0.2020 c3        1 MOL     -0.048709
    153 C53        -5.1150   -1.8290   -0.5320 c3        1 MOL      0.129260
    154 C54        -5.4560   -1.4080   -1.9150 c         1 MOL      0.719623
    155 O22        -6.0760   -2.0990   -2.6850 o         1 MOL     -0.695759
    156 O23        -4.9600   -0.3260   -2.3670 o         1 MOL     -0.695759
    157 H67        -7.7040   -2.8390   -1.5720 hn        1 MOL      0.144192
    158 H68        -6.9700   -2.7130    1.2310 h1        1 MOL      0.109951
    159 H69        -5.3430   -3.8530   -1.0550 hc        1 MOL      0.010684
    160 H70        -4.7780   -3.5690    0.5040 hc        1 MOL      0.010684
    161 H71        -4.0430   -1.7640   -0.3480 hc        1 MOL     -0.074198
    162 H72        -5.5660   -1.1060    0.1420 hc        1 MOL     -0.074198
    163 N14        -7.6330   -5.2390    1.9640 n         1 MOL     -0.279040
    164 C55        -8.0330   -4.4100    3.0850 c3        1 MOL     -0.074139
    165 H73        -9.0370   -4.6910    3.4030 h1        1 MOL      0.051544
    166 H74        -7.3360   -4.5550    3.9110 h1        1 MOL      0.051544
    167 H75        -8.0270   -3.3630    2.7830 h1        1 MOL      0.051544
    168 H76        -7.5870   -6.2350    2.1440 hn        1 MOL      0.245183
    169 Ca1         4.7730   -0.5920    0.1640 Ca        1 MOL      1.794958
    170 O24         3.5140    0.6790    2.0080 oh        1 MOL     -0.879506
    171 H77         4.0410    1.1490    2.6590 ho        1 MOL      0.431122
    172 H78         2.6360    0.6500    2.3850 ho        1 MOL      0.431122
    173 O25         2.5160    0.4390   -0.9390 oh        1 MOL     -0.879506
    174 H79         2.1440   -0.3450   -1.3390 ho        1 MOL      0.431122
    175 H80         1.8170    1.0860   -0.9870 ho        1 MOL      0.431122
    176 O26         3.6180   -2.1410   -1.9010 oh        1 MOL     -0.879506
    177 H81         4.3240   -2.0520   -2.5410 ho        1 MOL      0.431122
    178 H82         3.2080   -2.9730   -2.1170 ho        1 MOL      0.431122
    179 O27         2.5980   -1.8930    1.2430 oh        1 MOL     -0.879506
    180 H83         2.5090   -2.8170    1.0110 ho        1 MOL      0.431122
    181 H84         2.1070   -1.8050    2.0640 ho        1 MOL      0.431122
@<TRIPOS>BOND
     1    1    2 1   
     2    1    4 1   
     3    1    5 1   
     4    1    6 1   
     5    2    3 2   
     6    2    7 1   
     7    7    8 1   
     8    7   15 1   
     9    8    9 1   
    10    8   11 1   
    11    8   16 1   
    12    9   10 2   
    13    9   19 1   
    14   11   12 1   
    15   11   17 1   
    16   11   18 1   
    17   12   13 1   
    18   12   14 1   
    19   19   20 1   
    20   19   24 1   
    21   20   21 1   
    22   20   23 1   
    23   20   25 1   
    24   21   22 2   
    25   21   29 1   
    26   23   26 1   
    27   23   27 1   
    28   23   28 1   
    29   29   30 1   
    30   29   37 1   
    31   30   31 1   
    32   30   33 1   
    33   30   38 1   
    34   31   32 2   
    35   31   41 1   
    36   33   34 1   
    37   33   39 1   
    38   33   40 1   
    39   34   35 1   
    40   34   36 1   
    41   41   42 1   
    42   41   45 1   
    43   42   43 1   
    44   42   46 1   
    45   42   47 1   
    46   43   44 2   
    47   43   48 1   
    48   48   49 1   
    49   48   56 1   
    50   49   50 1   
    51   49   52 1   
    52   49   57 1   
    53   50   51 2   
    54   50   62 1   
    55   52   53 1   
    56   52   58 1   
    57   52   59 1   
    58   53   54 1   
    59   53   55 2   
    60   54   60 1   
    61   54   61 1   
    62   62   63 1   
    63   62   66 1   
    64   63   64 1   
    65   63   67 1   
    66   63   68 1   
    67   64   65 2   
    68   64   69 1   
    69   69   70 1   
    70   69   76 1   
    71   70   71 1   
    72   70   73 1   
    73   70   77 1   
    74   71   72 2   
    75   71   83 1   
    76   73   74 1   
    77   73   75 1   
    78   73   78 1   
    79   74   80 1   
    80   74   81 1   
    81   74   82 1   
    82   75   79 1   
    83   83   84 1   
    84   83   91 1   
    85   84   85 1   
    86   84   87 1   
    87   84   92 1   
    88   85   86 2   
    89   85  102 1   
    90   87   88 1   
    91   87   89 1   
    92   87   93 1   
    93   88   90 1   
    94   88   94 1   
    95   88   95 1   
    96   89   96 1   
    97   89   97 1   
    98   89   98 1   
    99   90   99 1   
   100   90  100 1   
   101   90  101 1   
   102  102  103 1   
   103  102  110 1   
   104  103  104 1   
   105  103  106 1   
   106  103  111 1   
   107  104  105 2   
   108  104  114 1   
   109  106  107 1   
   110  106  112 1   
   111  106  113 1   
   112  107  108 1   
   113  107  109 1   
   114  114  115 1   
   115  114  125 1   
   116  115  116 1   
   117  115  118 1   
   118  115  126 1   
   119  116  117 2   
   120  116  134 1   
   121  118  119 1   
   122  118  127 1   
   123  118  128 1   
   124  119  120 ar  
   125  119  121 ar  
   126  120  122 ar  
   127  120  129 1   
   128  121  123 ar  
   129  121  130 1   
   130  122  124 ar  
   131  122  131 1   
   132  123  124 ar  
   133  123  132 1   
   134  124  133 1   
   135  134  135 1   
   136  134  140 1   
   137  135  136 1   
   138  135  138 1   
   139  135  141 1   
   140  136  137 2   
   141  136  148 1   
   142  138  139 1   
   143  138  142 1   
   144  138  143 1   
   145  139  140 1   
   146  139  144 1   
   147  139  145 1   
   148  140  146 1   
   149  140  147 1   
   150  148  149 1   
   151  148  157 1   
   152  149  150 1   
   153  149  152 1   
   154  149  158 1   
   155  150  151 2   
   156  150  163 1   
   157  152  153 1   
   158  152  159 1   
   159  152  160 1   
   160  153  154 1   
   161  153  161 1   
   162  153  162 1   
   163  154  155 1   
   164  154  156 1   
   165  163  164 1   
   166  163  168 1   
   167  164  165 1   
   168  164  166 1   
   169  164  167 1   
   170  170  171 1   
   171  170  172 1   
   172  173  174 1   
   173  173  175 1   
   174  176  177 1   
   175  176  178 1   
   176  179  180 1   
   177  179  181 1   
@<TRIPOS>SUBSTRUCTURE
     1 MOL         1 TEMP              0 ****  ****    0 ROOT
