@<TRIPOS>MOLECULE
MOL
  198   191     1     0     0
SMALL
resp


@<TRIPOS>ATOM
      1 C1          5.1630   -4.5010   -0.3710 c3        1 MOL     -0.530679
      2 C2          4.3510   -3.1990   -0.6470 c         1 MOL      0.894194
      3 O1          4.8650   -2.2780   -1.2520 o         1 MOL     -0.582087
      4 H1          4.6390   -5.3530   -0.8030 hc        1 MOL      0.131673
      5 H2          6.1510   -4.4150   -0.8220 hc        1 MOL      0.131673
      6 H3          5.2640   -4.6450    0.7040 hc        1 MOL      0.131673
      7 N1          3.0450   -3.0020   -0.3350 n         1 MOL     -0.710499
      8 C3          2.0760   -3.9290    0.3080 c3        1 MOL     -0.664932
      9 C4          1.3380   -4.7690   -0.7920 c         1 MOL      0.821387
     10 O2          1.1760   -5.9690   -0.6310 o         1 MOL     -0.633806
     11 C5          1.0610   -3.2680    1.2810 c3        1 MOL     -0.337268
     12 C6          1.4250   -1.8630    1.8470 c         1 MOL      1.021920
     13 O3          2.4960   -1.7240    2.4540 o         1 MOL     -0.733257
     14 O4          0.5550   -0.9570    1.8070 o         1 MOL     -0.733257
     15 H4          2.6360   -2.0890   -0.4660 hn        1 MOL      0.357289
     16 H5          2.6350   -4.5860    0.9770 h1        1 MOL      0.302480
     17 H6          0.7470   -3.9460    2.0700 hc        1 MOL      0.130867
     18 H7          0.2200   -3.1330    0.6010 hc        1 MOL      0.130867
     19 N2          1.0880   -4.1780   -1.9830 n         1 MOL     -0.066242
     20 C7          0.9470   -5.0630   -3.1230 c3        1 MOL     -0.354317
     21 C8         -0.5140   -5.4550   -3.4820 c         1 MOL      0.592175
     22 O5         -0.7640   -5.8250   -4.5840 o         1 MOL     -0.549139
     23 C9          1.8720   -4.5700   -4.3120 c3        1 MOL      0.224047
     24 C10         1.5370   -3.1280   -4.8260 c3        1 MOL      0.127693
     25 C11         3.3910   -4.7430   -3.9860 c3        1 MOL     -0.371358
     26 C12         0.2410   -2.9740   -5.5660 c3        1 MOL     -0.217716
     27 H8          1.3630   -3.2170   -2.1150 hn        1 MOL      0.264861
     28 H9          1.3410   -6.0700   -2.9710 h1        1 MOL      0.121249
     29 H10         1.5750   -5.1770   -5.1630 hc        1 MOL     -0.028183
     30 H11         2.3600   -2.9330   -5.5200 hc        1 MOL     -0.040650
     31 H12         1.4580   -2.4430   -3.9810 hc        1 MOL     -0.040650
     32 H13         3.9340   -4.6280   -4.9270 hc        1 MOL      0.081969
     33 H14         3.7620   -3.9520   -3.3410 hc        1 MOL      0.081969
     34 H15         3.5260   -5.7680   -3.6310 hc        1 MOL      0.081969
     35 H16         0.3060   -1.9440   -5.9290 hc        1 MOL      0.046199
     36 H17         0.0550   -3.7370   -6.3160 hc        1 MOL      0.046199
     37 H18        -0.5230   -3.1080   -4.8040 hc        1 MOL      0.046199
     38 N3         -1.4280   -5.2380   -2.5380 n         1 MOL     -0.461860
     39 C13        -2.8670   -5.4080   -2.6170 c3        1 MOL      0.131961
     40 C14        -3.4260   -5.3880   -1.1520 c         1 MOL      0.507936
     41 O6         -2.6520   -5.1970   -0.2260 o         1 MOL     -0.500839
     42 C15        -3.3860   -4.1810   -3.4350 c3        1 MOL     -0.188726
     43 C16        -4.8400   -4.1810   -3.8660 c         1 MOL      0.703839
     44 O7         -5.2650   -3.3230   -4.6430 o         1 MOL     -0.710801
     45 O8         -5.5150   -5.1960   -3.5500 o         1 MOL     -0.710801
     46 H19        -1.1460   -4.9120   -1.6280 hn        1 MOL      0.231266
     47 H20        -3.1050   -6.3360   -3.1380 h1        1 MOL      0.030231
     48 H21        -2.8230   -4.0960   -4.3650 hc        1 MOL      0.067390
     49 H22        -3.2150   -3.3000   -2.8100 hc        1 MOL      0.067390
     50 N4         -4.7350   -5.5320   -0.9110 n         1 MOL     -0.564689
     51 C17        -5.3660   -5.2070    0.3370 c3        1 MOL      0.228881
     52 C18        -5.7700   -3.6860    0.4370 c         1 MOL      0.616854
     53 O9         -5.8060   -2.9380   -0.4900 o         1 MOL     -0.531816
     54 H23        -5.3300   -5.8400   -1.6640 hn        1 MOL      0.283772
     55 H24        -4.7760   -5.5190    1.1900 h1        1 MOL     -0.008294
     56 H25        -6.3110   -5.7130    0.5480 h1        1 MOL     -0.008294
     57 N5         -6.0050   -3.1870    1.6350 n         1 MOL     -0.633498
     58 C19        -6.2090   -1.8210    2.0920 c3        1 MOL      0.240761
     59 C20        -7.3070   -1.6270    3.0900 c         1 MOL      0.519414
     60 O10        -7.7340   -2.5620    3.7510 o         1 MOL     -0.542144
     61 C21        -4.9310   -1.2490    2.5430 c3        1 MOL     -0.198659
     62 C22        -4.1200   -2.1520    3.4370 c         1 MOL      0.754704
     63 O11        -4.5980   -2.5620    4.5460 o         1 MOL     -0.714765
     64 O12        -2.9320   -2.3400    3.1030 o         1 MOL     -0.714765
     65 H26        -6.0570   -3.9380    2.3140 hn        1 MOL      0.262437
     66 H27        -6.5060   -1.2280    1.2210 h1        1 MOL      0.081281
     67 H28        -5.0660   -0.3770    3.1820 hc        1 MOL      0.042100
     68 H29        -4.2520   -1.0000    1.7290 hc        1 MOL      0.042100
     69 N6         -7.8200   -0.3830    3.3150 n         1 MOL     -0.578925
     70 C23        -7.4870    0.8740    2.6750 c3        1 MOL      0.187856
     71 C24        -8.1690    1.1260    1.3120 c         1 MOL      0.457168
     72 O13        -8.9780    0.3440    0.9030 o         1 MOL     -0.500303
     73 H30        -8.4720   -0.2980    4.0930 hn        1 MOL      0.299033
     74 H31        -6.4040    1.0010    2.6210 h1        1 MOL      0.018600
     75 H32        -7.8180    1.6710    3.3360 h1        1 MOL      0.018600
     76 N7         -7.9330    2.3050    0.6870 n         1 MOL     -0.467023
     77 C25        -6.7140    3.1750    0.7830 c3        1 MOL     -0.014554
     78 C26        -5.3860    2.4580    0.4240 c         1 MOL      0.651387
     79 O14        -5.3170    1.2440    0.4100 o         1 MOL     -0.457939
     80 C27        -6.7060    4.0930    2.0350 c3        1 MOL      0.037150
     81 C28        -8.0330    4.7720    2.3740 c3        1 MOL     -0.294424
     82 C29        -8.4910    5.8690    1.4530 c         1 MOL      0.704605
     83 N8         -9.7400    6.3060    1.6480 n         1 MOL     -0.804323
     84 O15        -7.8490    6.3170    0.5360 o         1 MOL     -0.545905
     85 H33        -8.3800    2.2840   -0.2160 hn        1 MOL      0.294864
     86 H34        -6.9150    3.9000    0.0020 h1        1 MOL      0.079820
     87 H35        -5.9180    4.8150    1.8700 hc        1 MOL     -0.002264
     88 H36        -6.5120    3.4670    2.9140 hc        1 MOL     -0.002264
     89 H37        -7.8590    5.2210    3.3410 hc        1 MOL      0.083261
     90 H38        -8.8560    4.0470    2.3670 hc        1 MOL      0.083261
     91 H39       -10.2920    5.8710    2.3770 hn        1 MOL      0.350160
     92 H40       -10.0250    7.1550    1.1810 hn        1 MOL      0.350160
     93 N9         -4.2720    3.2410    0.3380 n         1 MOL     -0.752142
     94 C30        -2.8840    2.7050    0.1180 c3        1 MOL      0.233191
     95 C31        -2.6030    2.2640   -1.3440 c         1 MOL      0.501641
     96 O16        -3.3480    2.5760   -2.2250 o         1 MOL     -0.537435
     97 C32        -1.8510    3.7170    0.6510 c3        1 MOL      0.321754
     98 C33        -1.8980    4.0520    2.1550 c3        1 MOL     -0.239696
     99 C34        -1.8420    5.0640   -0.1360 c3        1 MOL     -0.239696
    100 H41        -4.3590    4.2440    0.2830 hn        1 MOL      0.331467
    101 H42        -2.8250    1.7260    0.6090 h1        1 MOL     -0.014944
    102 H43        -0.9040    3.2180    0.4460 hc        1 MOL     -0.049750
    103 H44        -2.8730    4.5050    2.3850 hc        1 MOL      0.058391
    104 H45        -1.8220    3.1060    2.6940 hc        1 MOL      0.058391
    105 H46        -1.0920    4.7040    2.4700 hc        1 MOL      0.058391
    106 H47        -2.0160    4.8730   -1.1960 hc        1 MOL      0.058391
    107 H48        -2.6050    5.7260    0.2680 hc        1 MOL      0.058391
    108 H49        -0.8610    5.5140   -0.0020 hc        1 MOL      0.058391
    109 N10        -1.5920    1.5020   -1.6440 n         1 MOL     -0.366744
    110 C35        -1.1560    1.0990   -2.9750 c3        1 MOL      0.087611
    111 C36         0.1680    1.7010   -3.5650 c         1 MOL      0.436837
    112 O17         0.5660    1.5030   -4.7050 o         1 MOL     -0.510741
    113 C37        -1.1980   -0.4650   -3.0060 c3        1 MOL     -0.176074
    114 C38        -0.4580   -1.1390   -1.8900 c         1 MOL      0.455696
    115 N11        -1.1600   -1.4940   -0.8990 n         1 MOL     -0.631697
    116 O18         0.7630   -1.3390   -1.9080 o         1 MOL     -0.534799
    117 H50        -0.9630    1.2220   -0.9040 hn        1 MOL      0.244839
    118 H51        -1.8860    1.4480   -3.7040 h1        1 MOL      0.075475
    119 H52        -0.8070   -0.7670   -3.9720 hc        1 MOL      0.082693
    120 H53        -2.2020   -0.8780   -3.0650 hc        1 MOL      0.082693
    121 H54        -2.1680   -1.5150   -0.9460 hn        1 MOL      0.359153
    122 H55        -0.6940   -1.5130   -0.0080 hn        1 MOL      0.359153
    123 N12         0.9150    2.4260   -2.7860 n         1 MOL     -0.300524
    124 C39         2.2330    2.9780   -3.0120 c3        1 MOL      0.032393
    125 C40         2.9910    3.2170   -1.7080 c         1 MOL      0.520543
    126 O19         2.3780    3.6380   -0.7410 o         1 MOL     -0.472549
    127 C41         2.0840    4.3010   -3.8230 c3        1 MOL     -0.091335
    128 C42         1.1650    5.4530   -3.3800 ca        1 MOL      0.143664
    129 C43         1.5390    6.1740   -2.2630 ca        1 MOL     -0.170370
    130 C44        -0.0510    5.6630   -4.0560 ca        1 MOL     -0.170370
    131 C45         0.7130    7.1930   -1.7840 ca        1 MOL     -0.247100
    132 C46        -0.9290    6.6810   -3.5370 ca        1 MOL     -0.247100
    133 C47        -0.5300    7.4390   -2.3540 ca        1 MOL      0.260040
    134 O20        -1.3670    8.3440   -1.7230 oh        1 MOL     -0.466305
    135 H56         0.5740    2.7750   -1.8990 hn        1 MOL      0.197865
    136 H57         2.8420    2.2350   -3.5260 h1        1 MOL      0.098701
    137 H58         1.7640    3.9760   -4.8090 hc        1 MOL      0.003342
    138 H59         3.0830    4.7300   -3.8520 hc        1 MOL      0.003342
    139 H60         2.3870    5.8870   -1.6730 ha        1 MOL      0.144496
    140 H61        -0.3390    5.0470   -4.9000 ha        1 MOL      0.144496
    141 H62         0.8550    7.6540   -0.8190 ha        1 MOL      0.145672
    142 H63        -1.9040    6.7840   -3.9960 ha        1 MOL      0.145672
    143 H64        -2.2390    8.3170   -2.1250 ho        1 MOL      0.336159
    144 N13         4.3540    3.1480   -1.6130 n         1 MOL     -0.474250
    145 C48         5.2140    3.3870   -0.4710 c3        1 MOL     -0.049741
    146 C49         6.4620    2.5080   -0.5440 c         1 MOL      0.402155
    147 O21         7.4980    2.8900   -1.1220 o         1 MOL     -0.515828
    148 C50         5.6010    4.8920   -0.2580 c3        1 MOL      0.139196
    149 C51         6.3650    5.1270    1.0340 c3        1 MOL     -0.346203
    150 C52         6.1560    6.5600    1.6330 c         1 MOL      0.695192
    151 O22         6.9520    7.0810    2.4790 o         1 MOL     -0.701989
    152 O23         5.0750    7.1330    1.3570 o         1 MOL     -0.701989
    153 H65         4.7630    2.9390   -2.5080 hn        1 MOL      0.304317
    154 H66         4.6600    3.1420    0.4300 h1        1 MOL      0.082689
    155 H67         4.6550    5.4360   -0.2290 hc        1 MOL      0.017992
    156 H68         6.0750    5.3550   -1.1240 hc        1 MOL      0.017992
    157 H69         7.4210    4.8630    0.9520 hc        1 MOL      0.085108
    158 H70         5.8680    4.4900    1.7670 hc        1 MOL      0.085108
    159 N14         6.3530    1.2580    0.0010 n         1 MOL     -0.167516
    160 C53         7.2370    0.1150   -0.3720 c3        1 MOL     -0.031999
    161 C54         7.1270   -0.4080   -1.8240 c         1 MOL      0.296101
    162 O24         7.9240   -1.2280   -2.2300 o         1 MOL     -0.530048
    163 C55         7.2190   -1.0660    0.6240 c3        1 MOL      0.029090
    164 C56         7.5430   -0.6360    2.0310 c3        1 MOL     -0.146677
    165 C57         6.3900    0.0060    2.8030 c         1 MOL      0.577206
    166 O25         6.6810    1.1230    3.3520 o         1 MOL     -0.681447
    167 O26         5.2410   -0.5220    2.8520 o         1 MOL     -0.681447
    168 H71         5.4610    1.1370    0.4430 hn        1 MOL      0.252757
    169 H72         8.2510    0.5310   -0.2920 h1        1 MOL      0.095998
    170 H73         7.9350   -1.8650    0.3920 hc        1 MOL      0.026827
    171 H74         6.2100   -1.4720    0.6500 hc        1 MOL      0.026827
    172 H75         8.3510    0.0840    1.9670 hc        1 MOL      0.012135
    173 H76         7.8560   -1.5410    2.5540 hc        1 MOL      0.012135
    174 N15         6.2170    0.1850   -2.6010 n         1 MOL      0.010409
    175 C58         6.0860    0.0060   -4.0600 c3        1 MOL     -0.147237
    176 H77         5.1180   -0.4420   -4.2850 h1        1 MOL      0.067815
    177 H78         6.1610    0.9750   -4.5550 h1        1 MOL      0.067815
    178 H79         6.8800   -0.6480   -4.4190 h1        1 MOL      0.067815
    179 H80         5.6590    0.9080   -2.1620 hn        1 MOL      0.029053
    180 Ca1         3.7300   -1.7950    4.6190 Ca        1 MOL      1.720931
    181 O27         1.5820   -3.2960    5.1380 oh        1 MOL     -0.801254
    182 O28         4.3580   -3.0770    7.1760 oh        1 MOL     -0.801254
    183 H81         1.4590   -4.2350    5.1270 ho        1 MOL      0.378066
    184 H82         5.0230   -2.5440    7.6190 ho        1 MOL      0.378066
    185 H83         0.6960   -2.9340    5.0720 ho        1 MOL      0.378066
    186 H84         4.1110   -3.7420    7.8230 ho        1 MOL      0.378066
    187 O29         4.8730   -0.0230    6.1420 oh        1 MOL     -0.801254
    188 H85         4.9610    0.8770    5.8370 ho        1 MOL      0.378066
    189 H86         5.5490   -0.1240    6.8040 ho        1 MOL      0.378066
    190 O30         1.6610   -0.1850    5.1530 oh        1 MOL     -0.801254
    191 H87         1.2930    0.5420    4.6480 ho        1 MOL      0.378066
    192 H88         1.2220   -0.1290    6.0050 ho        1 MOL      0.378066
    193 O31         4.4410   -4.4550    4.2990 oh        1 MOL     -0.801254
    194 H89         5.2170   -4.6110    4.8390 ho        1 MOL      0.378066
    195 H90         4.1050   -5.3250    4.0880 ho        1 MOL      0.378066
    196 O32         6.5110   -2.5000    5.0370 oh        1 MOL     -0.801254
    197 H91         6.5910   -3.1770    5.7030 ho        1 MOL      0.378066
    198 H92         7.2980   -1.9640    5.1390 ho        1 MOL      0.378066
@<TRIPOS>BOND
     1    1    2 1   
     2    1    4 1   
     3    1    5 1   
     4    1    6 1   
     5    2    3 2   
     6    2    7 1   
     7    7    8 1   
     8    7   15 1   
     9    8    9 1   
    10    8   11 1   
    11    8   16 1   
    12    9   10 2   
    13    9   19 1   
    14   11   12 1   
    15   11   17 1   
    16   11   18 1   
    17   12   13 1   
    18   12   14 1   
    19   19   20 1   
    20   19   27 1   
    21   20   21 1   
    22   20   23 1   
    23   20   28 1   
    24   21   22 2   
    25   21   38 1   
    26   23   24 1   
    27   23   25 1   
    28   23   29 1   
    29   24   26 1   
    30   24   30 1   
    31   24   31 1   
    32   25   32 1   
    33   25   33 1   
    34   25   34 1   
    35   26   35 1   
    36   26   36 1   
    37   26   37 1   
    38   38   39 1   
    39   38   46 1   
    40   39   40 1   
    41   39   42 1   
    42   39   47 1   
    43   40   41 2   
    44   40   50 1   
    45   42   43 1   
    46   42   48 1   
    47   42   49 1   
    48   43   44 1   
    49   43   45 1   
    50   50   51 1   
    51   50   54 1   
    52   51   52 1   
    53   51   55 1   
    54   51   56 1   
    55   52   53 2   
    56   52   57 1   
    57   57   58 1   
    58   57   65 1   
    59   58   59 1   
    60   58   61 1   
    61   58   66 1   
    62   59   60 2   
    63   59   69 1   
    64   61   62 1   
    65   61   67 1   
    66   61   68 1   
    67   62   63 1   
    68   62   64 1   
    69   69   70 1   
    70   69   73 1   
    71   70   71 1   
    72   70   74 1   
    73   70   75 1   
    74   71   72 2   
    75   71   76 1   
    76   76   77 1   
    77   76   85 1   
    78   77   78 1   
    79   77   80 1   
    80   77   86 1   
    81   78   79 2   
    82   78   93 1   
    83   80   81 1   
    84   80   87 1   
    85   80   88 1   
    86   81   82 1   
    87   81   89 1   
    88   81   90 1   
    89   82   83 1   
    90   82   84 2   
    91   83   91 1   
    92   83   92 1   
    93   93   94 1   
    94   93  100 1   
    95   94   95 1   
    96   94   97 1   
    97   94  101 1   
    98   95   96 2   
    99   95  109 1   
   100   97   98 1   
   101   97   99 1   
   102   97  102 1   
   103   98  103 1   
   104   98  104 1   
   105   98  105 1   
   106   99  106 1   
   107   99  107 1   
   108   99  108 1   
   109  109  110 1   
   110  109  117 1   
   111  110  111 1   
   112  110  113 1   
   113  110  118 1   
   114  111  112 2   
   115  111  123 1   
   116  113  114 1   
   117  113  119 1   
   118  113  120 1   
   119  114  115 1   
   120  114  116 2   
   121  115  121 1   
   122  115  122 1   
   123  123  124 1   
   124  123  135 1   
   125  124  125 1   
   126  124  127 1   
   127  124  136 1   
   128  125  126 2   
   129  125  144 1   
   130  127  128 1   
   131  127  137 1   
   132  127  138 1   
   133  128  129 ar  
   134  128  130 ar  
   135  129  131 ar  
   136  129  139 1   
   137  130  132 ar  
   138  130  140 1   
   139  131  133 ar  
   140  131  141 1   
   141  132  133 ar  
   142  132  142 1   
   143  133  134 1   
   144  134  143 1   
   145  144  145 1   
   146  144  153 1   
   147  145  146 1   
   148  145  148 1   
   149  145  154 1   
   150  146  147 2   
   151  146  159 1   
   152  148  149 1   
   153  148  155 1   
   154  148  156 1   
   155  149  150 1   
   156  149  157 1   
   157  149  158 1   
   158  150  151 1   
   159  150  152 1   
   160  159  160 1   
   161  159  168 1   
   162  160  161 1   
   163  160  163 1   
   164  160  169 1   
   165  161  162 2   
   166  161  174 1   
   167  163  164 1   
   168  163  170 1   
   169  163  171 1   
   170  164  165 1   
   171  164  172 1   
   172  164  173 1   
   173  165  166 1   
   174  165  167 1   
   175  174  175 1   
   176  174  179 1   
   177  175  176 1   
   178  175  177 1   
   179  175  178 1   
   180  181  183 1   
   181  181  185 1   
   182  182  184 1   
   183  182  186 1   
   184  187  188 1   
   185  187  189 1   
   186  190  191 1   
   187  190  192 1   
   188  193  194 1   
   189  193  195 1   
   190  196  197 1   
   191  196  198 1   
@<TRIPOS>SUBSTRUCTURE
     1 MOL         1 TEMP              0 ****  ****    0 ROOT
