@<TRIPOS>MOLECULE
MOL
  185   180     1     0     0
SMALL
resp


@<TRIPOS>ATOM
      1 C1         -7.2160    3.6950   -4.5660 c3        1 MOL     -0.390993
      2 C2         -6.1850    3.0070   -3.5810 c         1 MOL      0.606178
      3 O1         -4.9800    3.0910   -3.7700 o         1 MOL     -0.600232
      4 H1         -7.7900    4.4450   -4.0230 hc        1 MOL      0.101990
      5 H2         -6.6760    4.1730   -5.3830 hc        1 MOL      0.101990
      6 H3         -7.8930    2.9410   -4.9690 hc        1 MOL      0.101990
      7 N1         -6.7290    2.3450   -2.5500 n         1 MOL     -0.400680
      8 C3         -5.9740    1.8890   -1.3560 c3        1 MOL      0.000544
      9 C4         -5.0410    0.6970   -1.6920 c         1 MOL      0.515147
     10 O2         -4.0540    0.5740   -1.0270 o         1 MOL     -0.590826
     11 C5         -6.8820    1.4710   -0.1520 c3        1 MOL     -0.049231
     12 C6         -8.1300    0.6440   -0.4820 c         1 MOL      0.666855
     13 O3         -8.6250   -0.0400    0.4160 o         1 MOL     -0.683568
     14 O4         -8.6020    0.5300   -1.6460 o         1 MOL     -0.683568
     15 H4         -7.7440    2.3310   -2.5840 hn        1 MOL      0.221768
     16 H5         -5.3220    2.7240   -1.1110 h1        1 MOL      0.100993
     17 H6         -7.2860    2.3940    0.2790 hc        1 MOL      0.024815
     18 H7         -6.1970    1.0670    0.5940 hc        1 MOL      0.024815
     19 N2         -5.3070   -0.1750   -2.5970 n         1 MOL     -0.299908
     20 C7         -4.4240   -1.2690   -2.9400 c3        1 MOL     -0.050978
     21 C8         -4.5690   -2.5400   -2.0270 c         1 MOL      0.559666
     22 O5         -5.6040   -3.1550   -1.8270 o         1 MOL     -0.505241
     23 C9         -4.7320   -1.6250   -4.4230 c3        1 MOL     -0.328110
     24 C10        -4.0870   -3.0300   -4.8460 c3        1 MOL     -0.005966
     25 C11        -2.5410   -2.8380   -4.8770 c3        1 MOL     -0.331551
     26 C12        -1.9370   -4.2140   -5.0260 c3        1 MOL      0.003875
     27 N3         -0.5120   -4.1080   -4.6230 n4        1 MOL     -0.273866
     28 H8         -6.1710   -0.0590   -3.1200 hn        1 MOL      0.226669
     29 H9         -3.3870   -0.9430   -2.8270 h1        1 MOL      0.164118
     30 H10        -4.3120   -0.8640   -5.0890 hc        1 MOL      0.142693
     31 H11        -5.8120   -1.5850   -4.5540 hc        1 MOL      0.142693
     32 H12        -4.4060   -3.2390   -5.8690 hc        1 MOL      0.078257
     33 H13        -4.3970   -3.8400   -4.1980 hc        1 MOL      0.078257
     34 H14        -2.1640   -2.4270   -3.9380 hc        1 MOL      0.099074
     35 H15        -2.2710   -2.2810   -5.7720 hc        1 MOL      0.099074
     36 H16        -2.0680   -4.4720   -6.0860 hx        1 MOL      0.091602
     37 H17        -2.4750   -4.9790   -4.4620 hx        1 MOL      0.091602
     38 H18        -0.5560   -3.8650   -3.6380 hn        1 MOL      0.301621
     39 H19        -0.0300   -4.9840   -4.7290 hn        1 MOL      0.301621
     40 H20         0.0080   -3.3950   -5.1050 hn        1 MOL      0.301621
     41 N4         -3.4730   -3.0220   -1.5030 n         1 MOL     -0.142563
     42 C13        -3.3850   -4.0950   -0.5000 c3        1 MOL     -0.148561
     43 C14        -3.5750   -3.6710    0.9730 c         1 MOL      0.710204
     44 O6         -3.1520   -2.5890    1.3480 o         1 MOL     -0.595395
     45 C15        -2.0890   -4.9220   -0.6850 c3        1 MOL     -0.071284
     46 C16        -0.8850   -3.9490   -0.8010 c         1 MOL      0.577206
     47 O7         -0.2370   -3.6160    0.2180 o         1 MOL     -0.657317
     48 O8         -0.6000   -3.5030   -1.9550 o         1 MOL     -0.657317
     49 H21        -2.5980   -2.6040   -1.7600 hn        1 MOL      0.028595
     50 H22        -4.2730   -4.7320   -0.5810 h1        1 MOL      0.047402
     51 H23        -2.1210   -5.5830   -1.5530 hc        1 MOL      0.042582
     52 H24        -2.0530   -5.5720    0.1830 hc        1 MOL      0.042582
     53 N5         -4.0770   -4.5500    1.8280 n         1 MOL     -0.388230
     54 C17        -4.5720   -4.3160    3.1710 c3        1 MOL     -0.065031
     55 C18        -5.9610   -3.6070    3.1590 c         1 MOL      0.465122
     56 O9         -6.9620   -4.2270    2.7520 o         1 MOL     -0.511722
     57 H25        -4.1980   -5.5020    1.5250 hn        1 MOL      0.305348
     58 H26        -3.8620   -3.6780    3.6960 h1        1 MOL      0.077612
     59 H27        -4.6450   -5.2830    3.6820 h1        1 MOL      0.077612
     60 N6         -6.1560   -2.3370    3.5540 n         1 MOL     -0.294856
     61 C19        -5.0900   -1.4450    4.0400 c3        1 MOL      0.046704
     62 C20        -5.5290    0.0190    3.7120 c         1 MOL      0.444735
     63 O10        -6.6720    0.4580    3.9760 o         1 MOL     -0.511891
     64 C21        -4.8160   -1.5850    5.5860 c3        1 MOL     -0.400274
     65 C22        -3.6760   -0.6060    5.8880 c         1 MOL      0.647162
     66 N7         -4.0140    0.5660    6.4730 n         1 MOL     -0.748581
     67 O11        -2.5200   -0.9180    5.6370 o         1 MOL     -0.558316
     68 H28        -7.1270   -2.0800    3.6850 hn        1 MOL      0.301567
     69 H29        -4.1930   -1.6450    3.4680 h1        1 MOL      0.095953
     70 H30        -4.4600   -2.5660    5.8830 hc        1 MOL      0.131137
     71 H31        -5.7040   -1.4090    6.1960 hc        1 MOL      0.131137
     72 H32        -4.8420    0.5110    7.0550 hn        1 MOL      0.356574
     73 H33        -3.2450    1.1260    6.8000 hn        1 MOL      0.356574
     74 N8         -4.7970    0.9540    3.0790 n         1 MOL     -0.398042
     75 C23        -3.4390    0.6670    2.4640 c3        1 MOL      0.148491
     76 C24        -2.8530    1.9040    1.7500 c         1 MOL      0.425230
     77 O12        -3.6460    2.8150    1.4450 o         1 MOL     -0.515326
     78 H34        -5.2160    1.8760    3.0650 hn        1 MOL      0.297675
     79 H35        -3.6950   -0.0810    1.7120 h1        1 MOL      0.010837
     80 H36        -2.7250    0.2600    3.1740 h1        1 MOL      0.010837
     81 N9         -1.6120    1.9330    1.3740 n         1 MOL     -0.398601
     82 C25        -0.9940    3.0740    0.7950 c3        1 MOL      0.183050
     83 C26         0.2870    2.6120    0.0630 c         1 MOL      0.507249
     84 O13         0.6590    1.4340    0.1360 o         1 MOL     -0.580171
     85 C27        -0.6930    4.1300    1.8960 c3        1 MOL     -0.032946
     86 C28        -0.0780    5.3900    1.2970 ca        1 MOL      0.053935
     87 C29         0.9790    6.0010    1.9570 ca        1 MOL     -0.177318
     88 C30        -0.6580    6.0100    0.1670 ca        1 MOL     -0.177318
     89 C31         1.4510    7.2290    1.6110 ca        1 MOL     -0.198527
     90 C32        -0.0880    7.2280   -0.3040 ca        1 MOL     -0.198527
     91 C33         0.9390    7.8860    0.4420 ca        1 MOL      0.274099
     92 O14         1.3470    9.1510    0.1390 oh        1 MOL     -0.470300
     93 H37        -0.9940    1.1710    1.6520 hn        1 MOL      0.203468
     94 H38        -1.5540    3.6760    0.0830 h1        1 MOL      0.037697
     95 H39        -0.1170    3.7440    2.7400 hc        1 MOL      0.036566
     96 H40        -1.6660    4.3970    2.2990 hc        1 MOL      0.036566
     97 H41         1.3990    5.4490    2.7930 ha        1 MOL      0.142714
     98 H42        -1.4930    5.5990   -0.3840 ha        1 MOL      0.142714
     99 H43         2.2830    7.6880    2.1240 ha        1 MOL      0.142402
    100 H44        -0.4420    7.6800   -1.2060 ha        1 MOL      0.142402
    101 H45         1.0410    9.4420   -0.7250 ho        1 MOL      0.365542
    102 N10         0.9200    3.4500   -0.7190 n         1 MOL     -0.409946
    103 C34         2.2740    3.2300   -1.2870 c3        1 MOL      0.263667
    104 C35         3.3540    3.2660   -0.2150 c         1 MOL      0.264367
    105 O15         3.5390    4.3260    0.4840 o         1 MOL     -0.516225
    106 C36         2.4980    4.1930   -2.5260 c3        1 MOL     -0.009070
    107 C37         3.6480    3.7130   -3.3300 c3        1 MOL     -0.139796
    108 C38         1.2150    4.3270   -3.3770 c3        1 MOL     -0.048793
    109 C39         3.5870    2.2930   -3.9490 c3        1 MOL     -0.106180
    110 H46         0.5520    4.3860   -0.7930 hn        1 MOL      0.188208
    111 H47         2.2590    2.2280   -1.7360 h1        1 MOL      0.051619
    112 H48         2.5710    5.2020   -2.1280 hc        1 MOL      0.017522
    113 H49         4.5830    3.8940   -2.7980 hc        1 MOL      0.064663
    114 H50         3.6310    4.3950   -4.1820 hc        1 MOL      0.064663
    115 H51         1.3890    4.7100   -4.3750 hc        1 MOL      0.018624
    116 H52         0.6750    3.3880   -3.4860 hc        1 MOL      0.018624
    117 H53         0.4720    5.0560   -3.0520 hc        1 MOL      0.018624
    118 H54         4.3980    2.2800   -4.6740 hc        1 MOL      0.028692
    119 H55         3.9160    1.4830   -3.3050 hc        1 MOL      0.028692
    120 H56         2.6530    1.9300   -4.3900 hc        1 MOL      0.028692
    121 N11         4.0190    2.1640   -0.0070 n         1 MOL     -0.020992
    122 C40         5.0350    1.9460    1.0690 c3        1 MOL      0.036058
    123 C41         4.9570    0.5730    1.8210 c         1 MOL      0.374393
    124 O16         4.5900   -0.4880    1.2140 o         1 MOL     -0.408141
    125 C42         6.4460    2.2420    0.5640 c3        1 MOL     -0.309289
    126 O17         7.1770    1.1640   -0.0020 oh        1 MOL     -0.372017
    127 H57         3.6950    1.3590   -0.5090 hn        1 MOL      0.090701
    128 H58         4.6880    2.7110    1.7660 h1        1 MOL      0.055973
    129 H59         7.0320    2.5870    1.4080 h1        1 MOL      0.150019
    130 H60         6.4790    3.0020   -0.2140 h1        1 MOL      0.150019
    131 H61         8.0820    1.4560   -0.1330 ho        1 MOL      0.365266
    132 N12         5.2530    0.6450    3.1260 n         1 MOL     -0.324438
    133 C43         5.7100   -0.4390    4.0560 c3        1 MOL      0.106892
    134 C44         6.7450   -1.3940    3.3310 c         1 MOL      0.537667
    135 O18         6.5740   -2.5750    3.2200 o         1 MOL     -0.470053
    136 C45         4.3850   -1.0660    4.5670 c3        1 MOL     -0.161380
    137 H62         5.4850    1.5310    3.5510 hn        1 MOL      0.273395
    138 H63         6.1560    0.0830    4.9030 h1        1 MOL      0.059385
    139 H64         3.8210   -1.2040    3.6410 hc        1 MOL      0.041202
    140 H65         4.5900   -2.0200    5.0400 hc        1 MOL      0.041202
    141 H66         3.7920   -0.3330    5.1120 hc        1 MOL      0.041202
    142 N13         7.6730   -0.7130    2.6610 n         1 MOL     -0.734832
    143 C46         8.7530   -1.3710    1.7740 c3        1 MOL      0.683777
    144 C47         8.3750   -2.3730    0.6670 c         1 MOL      0.101935
    145 O19         9.1430   -3.2760    0.3180 o         1 MOL     -0.449075
    146 C48         9.9180   -1.8530    2.5680 c3        1 MOL     -0.405839
    147 H67         7.5900    0.2930    2.6930 hn        1 MOL      0.285237
    148 H68         9.1960   -0.5640    1.2010 h1        1 MOL     -0.089729
    149 H69         9.7540   -2.8510    2.9580 hc        1 MOL      0.100307
    150 H70        10.7860   -1.8740    1.9140 hc        1 MOL      0.100307
    151 H71        10.1650   -1.1330    3.3480 hc        1 MOL      0.100307
    152 N14         7.2050   -2.1530    0.0780 n         1 MOL      0.078642
    153 C49         6.7700   -2.8850   -1.0690 c3        1 MOL     -0.143901
    154 C50         7.6750   -2.6820   -2.2710 c         1 MOL      0.444420
    155 O20         8.0000   -3.6920   -2.9420 o         1 MOL     -0.527236
    156 C51         5.2390   -2.6590   -1.3510 c3        1 MOL      0.030000
    157 C52         4.8460   -1.3750   -2.0360 c3        1 MOL     -0.155727
    158 C53         3.3360   -1.2820   -1.9670 c         1 MOL      0.916902
    159 O21         2.8110   -0.3020   -1.3620 o         1 MOL     -0.837018
    160 O22         2.6020   -2.1440   -2.3980 o         1 MOL     -0.837018
    161 H72         6.6000   -1.4200    0.4200 hn        1 MOL      0.089674
    162 H73         6.8570   -3.9150   -0.7150 h1        1 MOL      0.113873
    163 H74         4.7300   -2.6390   -0.3920 hc        1 MOL      0.005189
    164 H75         4.9400   -3.5270   -1.9440 hc        1 MOL      0.005189
    165 H76         5.0320   -1.3180   -3.1070 hc        1 MOL      0.034207
    166 H77         5.3090   -0.5440   -1.5040 hc        1 MOL      0.034207
    167 N15         8.0710   -1.4490   -2.5150 n         1 MOL     -0.096372
    168 C54         8.9990   -1.0420   -3.5300 c3        1 MOL     -0.139822
    169 H78         8.9200   -1.7130   -4.3850 h1        1 MOL      0.075028
    170 H79         8.7710   -0.0240   -3.8440 h1        1 MOL      0.075028
    171 H80        10.0130   -1.0810   -3.1320 h1        1 MOL      0.075028
    172 H81         7.7420   -0.7460   -1.8730 hn        1 MOL      0.074922
    173 Ca1         0.6160   -1.3320   -0.7000 Ca        1 MOL      1.761599
    174 O23        -0.2900   -1.0560    1.8040 oh        1 MOL     -0.838223
    175 H82         0.0600   -0.4220    2.4350 ho        1 MOL      0.424536
    176 H83        -0.7370   -1.7040    2.3420 ho        1 MOL      0.424536
    177 O24        -0.1670   -0.3710   -2.9450 oh        1 MOL     -0.838223
    178 H84        -1.0320   -0.0800   -3.2190 ho        1 MOL      0.424536
    179 H85         0.1980   -0.7970   -3.7260 ho        1 MOL      0.424536
    180 O25         2.3350   -2.0990    1.4370 oh        1 MOL     -0.838223
    181 H86         3.2470   -1.8080    1.4520 ho        1 MOL      0.424536
    182 H87         2.2010   -2.5260    2.2820 ho        1 MOL      0.424536
    183 O26        -1.9580   -0.8190   -0.4710 oh        1 MOL     -0.838223
    184 H88        -2.6910   -0.2440   -0.6710 ho        1 MOL      0.424536
    185 H89        -2.2620   -1.3500    0.2560 ho        1 MOL      0.424536
@<TRIPOS>BOND
     1    1    2 1   
     2    1    4 1   
     3    1    5 1   
     4    1    6 1   
     5    2    3 2   
     6    2    7 1   
     7    7    8 1   
     8    7   15 1   
     9    8    9 1   
    10    8   11 1   
    11    8   16 1   
    12    9   10 2   
    13    9   19 1   
    14   11   12 1   
    15   11   17 1   
    16   11   18 1   
    17   12   13 1   
    18   12   14 1   
    19   19   20 1   
    20   19   28 1   
    21   20   21 1   
    22   20   23 1   
    23   20   29 1   
    24   21   22 2   
    25   21   41 1   
    26   23   24 1   
    27   23   30 1   
    28   23   31 1   
    29   24   25 1   
    30   24   32 1   
    31   24   33 1   
    32   25   26 1   
    33   25   34 1   
    34   25   35 1   
    35   26   27 1   
    36   26   36 1   
    37   26   37 1   
    38   27   38 1   
    39   27   39 1   
    40   27   40 1   
    41   41   42 1   
    42   41   49 1   
    43   42   43 1   
    44   42   45 1   
    45   42   50 1   
    46   43   44 2   
    47   43   53 1   
    48   45   46 1   
    49   45   51 1   
    50   45   52 1   
    51   46   47 1   
    52   46   48 1   
    53   53   54 1   
    54   53   57 1   
    55   54   55 1   
    56   54   58 1   
    57   54   59 1   
    58   55   56 2   
    59   55   60 1   
    60   60   61 1   
    61   60   68 1   
    62   61   62 1   
    63   61   64 1   
    64   61   69 1   
    65   62   63 2   
    66   62   74 1   
    67   64   65 1   
    68   64   70 1   
    69   64   71 1   
    70   65   66 1   
    71   65   67 2   
    72   66   72 1   
    73   66   73 1   
    74   74   75 1   
    75   74   78 1   
    76   75   76 1   
    77   75   79 1   
    78   75   80 1   
    79   76   77 2   
    80   76   81 1   
    81   81   82 1   
    82   81   93 1   
    83   82   83 1   
    84   82   85 1   
    85   82   94 1   
    86   83   84 2   
    87   83  102 1   
    88   85   86 1   
    89   85   95 1   
    90   85   96 1   
    91   86   87 ar  
    92   86   88 ar  
    93   87   89 ar  
    94   87   97 1   
    95   88   90 ar  
    96   88   98 1   
    97   89   91 ar  
    98   89   99 1   
    99   90   91 ar  
   100   90  100 1   
   101   91   92 1   
   102   92  101 1   
   103  102  103 1   
   104  102  110 1   
   105  103  104 1   
   106  103  106 1   
   107  103  111 1   
   108  104  105 2   
   109  104  121 1   
   110  106  107 1   
   111  106  108 1   
   112  106  112 1   
   113  107  109 1   
   114  107  113 1   
   115  107  114 1   
   116  108  115 1   
   117  108  116 1   
   118  108  117 1   
   119  109  118 1   
   120  109  119 1   
   121  109  120 1   
   122  121  122 1   
   123  121  127 1   
   124  122  123 1   
   125  122  125 1   
   126  122  128 1   
   127  123  124 2   
   128  123  132 1   
   129  125  126 1   
   130  125  129 1   
   131  125  130 1   
   132  126  131 1   
   133  132  133 1   
   134  132  137 1   
   135  133  134 1   
   136  133  136 1   
   137  133  138 1   
   138  134  135 2   
   139  134  142 1   
   140  136  139 1   
   141  136  140 1   
   142  136  141 1   
   143  142  143 1   
   144  142  147 1   
   145  143  144 1   
   146  143  146 1   
   147  143  148 1   
   148  144  145 2   
   149  144  152 1   
   150  146  149 1   
   151  146  150 1   
   152  146  151 1   
   153  152  153 1   
   154  152  161 1   
   155  153  154 1   
   156  153  156 1   
   157  153  162 1   
   158  154  155 2   
   159  154  167 1   
   160  156  157 1   
   161  156  163 1   
   162  156  164 1   
   163  157  158 1   
   164  157  165 1   
   165  157  166 1   
   166  158  159 1   
   167  158  160 1   
   168  167  168 1   
   169  167  172 1   
   170  168  169 1   
   171  168  170 1   
   172  168  171 1   
   173  174  175 1   
   174  174  176 1   
   175  177  178 1   
   176  177  179 1   
   177  180  181 1   
   178  180  182 1   
   179  183  184 1   
   180  183  185 1   
@<TRIPOS>SUBSTRUCTURE
     1 MOL         1 TEMP              0 ****  ****    0 ROOT
