@<TRIPOS>MOLECULE
MOL
  181   177     1     0     0
SMALL
resp


@<TRIPOS>ATOM
      1 C1          6.5420    2.0600    6.0860 c3        1 MOL     -0.385224
      2 C2          5.8690    1.3530    4.9190 c         1 MOL      0.778874
      3 O1          4.6370    1.3000    4.9640 o         1 MOL     -0.593375
      4 H1          7.3280    1.4240    6.4920 hc        1 MOL      0.088237
      5 H2          6.9770    2.9980    5.7410 hc        1 MOL      0.088237
      6 H3          5.8050    2.2660    6.8610 hc        1 MOL      0.088237
      7 N1          6.5250    0.6790    3.9690 n         1 MOL     -0.620453
      8 C3          7.9600    0.6720    3.6850 c3        1 MOL     -0.036735
      9 C4          8.3810   -0.7400    3.2260 c         1 MOL      0.716844
     10 O2          7.7740   -1.7190    3.5970 o         1 MOL     -0.508732
     11 C5          8.2580    1.8610    2.6910 c3        1 MOL     -0.146350
     12 C6          7.5880    1.7470    1.3180 c         1 MOL      0.758514
     13 O3          6.9640    2.6760    0.8270 o         1 MOL     -0.761541
     14 O4          7.7760    0.7170    0.6320 o         1 MOL     -0.761541
     15 H4          5.9760   -0.0220    3.4940 hn        1 MOL      0.415957
     16 H5          8.4850    0.8560    4.6140 h1        1 MOL      0.064969
     17 H6          9.3400    1.9460    2.5430 hc        1 MOL      0.027506
     18 H7          7.9550    2.7820    3.1970 hc        1 MOL      0.027506
     19 N2          9.5400   -0.8650    2.5290 n         1 MOL     -0.728529
     20 C7          9.9990   -2.1330    1.9100 c3        1 MOL      0.490453
     21 C8          9.0720   -2.8620    1.0140 c         1 MOL      0.202478
     22 O5          9.3210   -4.0190    0.6050 o         1 MOL     -0.538555
     23 C9         10.5100   -3.0160    3.0940 c3        1 MOL     -0.542034
     24 H8         10.0740   -0.0450    2.2830 hn        1 MOL      0.348842
     25 H9         10.8720   -1.8650    1.3120 h1        1 MOL     -0.002875
     26 H10        11.0720   -3.7850    2.5680 hc        1 MOL      0.141714
     27 H11        11.0680   -2.3820    3.7860 hc        1 MOL      0.141714
     28 H12         9.6760   -3.3530    3.7140 hc        1 MOL      0.141714
     29 N3          7.9120   -2.2420    0.7570 n         1 MOL      0.203181
     30 C10         6.7270   -2.7470   -0.0010 c3        1 MOL     -0.037941
     31 C11         6.6230   -2.1270   -1.4060 c         1 MOL      0.318689
     32 O6          6.9040   -0.9620   -1.6520 o         1 MOL     -0.508452
     33 C12         5.4150   -2.6430    0.7530 c3        1 MOL     -0.145281
     34 C13         5.0790   -1.2410    1.2320 c         1 MOL      0.828091
     35 O7          4.9740   -1.0320    2.4390 o         1 MOL     -0.717173
     36 O8          4.8100   -0.3330    0.4070 o         1 MOL     -0.717173
     37 H13         7.7730   -1.3450    1.2020 hn        1 MOL     -0.136476
     38 H14         6.9190   -3.7680   -0.3290 h1        1 MOL      0.041833
     39 H15         5.4920   -3.3460    1.5790 hc        1 MOL      0.050667
     40 H16         4.6350   -2.9970    0.0720 hc        1 MOL      0.050667
     41 N4          6.0590   -2.8740   -2.3860 n         1 MOL     -0.166273
     42 C14         5.6940   -2.4230   -3.7570 c3        1 MOL     -0.442492
     43 C15         4.2820   -1.9360   -3.9830 c         1 MOL      0.607689
     44 O9          3.8930   -1.3390   -5.0010 o         1 MOL     -0.557058
     45 H17         5.9150   -3.8520   -2.2010 hn        1 MOL      0.240254
     46 H18         5.8880   -3.2460   -4.4490 h1        1 MOL      0.174774
     47 H19         6.3970   -1.6440   -4.0570 h1        1 MOL      0.174774
     48 N5          3.4580   -2.2340   -3.0150 n         1 MOL     -0.322123
     49 C16         2.1820   -1.4970   -2.8950 c3        1 MOL     -0.041692
     50 C17         2.2020    0.0280   -2.5610 c         1 MOL      0.568557
     51 O10         3.2770    0.5070   -2.1780 o         1 MOL     -0.568604
     52 C18         1.1980   -2.3230   -2.0180 c3        1 MOL     -0.048969
     53 C19         0.8710   -3.7210   -2.5120 c         1 MOL      0.661930
     54 N6          1.0540   -4.8010   -1.8020 n         1 MOL     -0.797397
     55 O11         0.4910   -3.7960   -3.6740 o         1 MOL     -0.546960
     56 H20         3.7340   -2.7060   -2.1700 hn        1 MOL      0.236999
     57 H21         1.6000   -1.5350   -3.8170 h1        1 MOL      0.094197
     58 H22         0.2460   -1.8160   -1.8430 hc        1 MOL     -0.011350
     59 H23         1.7690   -2.4740   -1.0980 hc        1 MOL     -0.011350
     60 H24         1.1320   -4.8130   -0.7970 hn        1 MOL      0.376458
     61 H25         0.6080   -5.5830   -2.2490 hn        1 MOL      0.376458
     62 N7          1.0500    0.6560   -2.5840 n         1 MOL     -0.555401
     63 C20         0.8770    2.0240   -2.0910 c3        1 MOL      0.392116
     64 C21         0.6930    3.0530   -3.2280 c         1 MOL      0.507066
     65 O12         1.1260    2.8180   -4.3680 o         1 MOL     -0.537577
     66 H26         0.2500    0.1860   -2.9850 hn        1 MOL      0.339025
     67 H27         1.7640    2.3500   -1.5410 h1        1 MOL     -0.018414
     68 H28         0.0150    2.0270   -1.4350 h1        1 MOL     -0.018414
     69 N8          0.1240    4.2630   -2.9080 n         1 MOL     -0.559517
     70 C22        -0.2440    4.7500   -1.5700 c3        1 MOL      0.055701
     71 C23        -1.5260    4.0270   -1.0600 c         1 MOL      0.419861
     72 O13        -2.3550    3.5350   -1.7820 o         1 MOL     -0.498913
     73 C24        -0.4800    6.2770   -1.7260 c3        1 MOL      0.355483
     74 C25        -0.7790    7.0190   -0.4250 c3        1 MOL     -0.456055
     75 O14         0.6590    6.8950   -2.2920 oh        1 MOL     -0.638054
     76 H29        -0.0930    4.8920   -3.6770 hn        1 MOL      0.331383
     77 H30         0.5640    4.5450   -0.8750 h1        1 MOL      0.063688
     78 H31        -1.2930    6.4400   -2.4310 h1        1 MOL      0.029142
     79 H32         0.5170    7.8350   -2.1470 ho        1 MOL      0.383292
     80 H33        -1.7870    6.8650   -0.0340 hc        1 MOL      0.122856
     81 H34        -0.0730    6.8510    0.3920 hc        1 MOL      0.122856
     82 H35        -0.9150    8.0820   -0.6360 hc        1 MOL      0.122856
     83 N9         -1.6550    3.8970    0.2500 n         1 MOL     -0.359926
     84 C26        -2.7840    3.2560    0.9060 c3        1 MOL      0.062804
     85 C27        -3.7230    4.2670    1.6630 c         1 MOL      0.536838
     86 O15        -3.2130    5.0790    2.3750 o         1 MOL     -0.598828
     87 C28        -2.1170    2.2840    1.9420 c3        1 MOL      0.022134
     88 C29        -1.0740    1.3830    1.1830 c3        1 MOL     -0.004350
     89 C30        -3.1450    1.3720    2.7140 c3        1 MOL     -0.212885
     90 C31        -1.5810    0.4510    0.0860 c3        1 MOL     -0.063594
     91 H36        -0.8620    4.1320    0.8390 hn        1 MOL      0.227789
     92 H37        -3.2490    2.5540    0.2280 h1        1 MOL      0.064774
     93 H38        -1.5830    2.8780    2.6890 hc        1 MOL      0.029907
     94 H39        -0.6690    0.6510    1.8730 hc        1 MOL     -0.013895
     95 H40        -0.1630    1.9340    0.9430 hc        1 MOL     -0.013895
     96 H41        -2.6090    0.5700    3.2180 hc        1 MOL      0.068710
     97 H42        -3.5200    1.9000    3.5810 hc        1 MOL      0.068710
     98 H43        -3.9070    1.0230    2.0050 hc        1 MOL      0.068710
     99 H44        -1.9670    1.0130   -0.7620 hc        1 MOL      0.030442
    100 H45        -0.7560   -0.1190   -0.3600 hc        1 MOL      0.030442
    101 H46        -2.3150   -0.2440    0.4860 hc        1 MOL      0.030442
    102 N10        -4.9750    4.4130    1.3850 n         1 MOL     -0.462417
    103 C32        -5.6560    3.6950    0.2980 c3        1 MOL      0.407585
    104 C33        -6.4680    2.4410    0.8060 c         1 MOL      0.454576
    105 O16        -6.4900    2.1590    1.9860 o         1 MOL     -0.583165
    106 C34        -6.5540    4.6180   -0.4900 c3        1 MOL     -0.362015
    107 C35        -7.5260    5.5150    0.2140 c         1 MOL      0.790856
    108 O17        -8.1530    6.2840   -0.5230 o         1 MOL     -0.739749
    109 O18        -7.7230    5.5550    1.4410 o         1 MOL     -0.739749
    110 H47        -5.5260    4.9160    2.0690 hn        1 MOL      0.307940
    111 H48        -4.9060    3.3240   -0.4090 h1        1 MOL     -0.018473
    112 H49        -7.0630    4.0770   -1.2880 hc        1 MOL      0.048005
    113 H50        -5.7840    5.2510   -0.9260 hc        1 MOL      0.048005
    114 N11        -7.1060    1.6870   -0.0670 n         1 MOL     -0.592794
    115 C36        -7.7250    0.4070    0.2810 c3        1 MOL      0.582154
    116 C37        -7.7490   -0.5450   -0.9340 c         1 MOL      0.215834
    117 O19        -7.8580   -0.0170   -2.0170 o         1 MOL     -0.525943
    118 C38        -9.1100    0.5520    0.9040 c3        1 MOL     -0.383846
    119 C39        -9.6930   -0.6780    1.6040 ca        1 MOL      0.035214
    120 C40       -10.7450   -1.3740    1.0110 ca        1 MOL     -0.095386
    121 C41        -9.0570   -1.1220    2.7850 ca        1 MOL     -0.095386
    122 C42       -11.2030   -2.5870    1.5920 ca        1 MOL     -0.153691
    123 C43        -9.4470   -2.3350    3.3220 ca        1 MOL     -0.153691
    124 C44       -10.4600   -3.1070    2.6600 ca        1 MOL     -0.129332
    125 H51        -6.9900    1.8080   -1.0650 hn        1 MOL      0.289096
    126 H52        -7.0970   -0.1350    0.9880 h1        1 MOL     -0.037678
    127 H53        -9.7930    1.0020    0.1840 hc        1 MOL      0.129728
    128 H54        -8.9930    1.2440    1.7430 hc        1 MOL      0.129728
    129 H55       -11.2550   -0.9460    0.1540 ha        1 MOL      0.109371
    130 H56        -8.2270   -0.5870    3.2320 ha        1 MOL      0.109371
    131 H57       -11.8840   -3.2450    1.0770 ha        1 MOL      0.111890
    132 H58        -9.0360   -2.7780    4.2110 ha        1 MOL      0.111890
    133 H59       -10.7710   -4.1060    2.9370 ha        1 MOL      0.097698
    134 N12        -7.6910   -1.8690   -0.8120 n         1 MOL      0.263070
    135 C45        -7.0990   -2.6990    0.2590 c3        1 MOL     -0.211061
    136 C46        -5.5570   -2.6080    0.2350 c         1 MOL      0.567182
    137 O20        -5.0940   -1.5110   -0.0810 o         1 MOL     -0.597975
    138 C47        -7.7240   -4.1180   -0.1800 c3        1 MOL     -0.107689
    139 C48        -7.7040   -4.0510   -1.6240 c3        1 MOL     -0.026104
    140 C49        -8.0510   -2.5950   -1.9350 c3        1 MOL      0.048037
    141 H60        -7.4700   -2.4520    1.2560 h1        1 MOL      0.060845
    142 H61        -7.1890   -4.9670    0.2470 hc        1 MOL      0.033797
    143 H62        -8.7570   -4.1810    0.1530 hc        1 MOL      0.033797
    144 H63        -6.6850   -4.2260   -1.9670 hc        1 MOL      0.031615
    145 H64        -8.3740   -4.7870   -2.0670 hc        1 MOL      0.031615
    146 H65        -7.5820   -2.2080   -2.8440 h1        1 MOL     -0.021340
    147 H66        -9.1360   -2.4840   -1.9560 h1        1 MOL     -0.021340
    148 N13        -4.6950   -3.5910    0.5020 n         1 MOL     -0.161202
    149 C50        -3.3060   -3.4290    0.7590 c3        1 MOL     -0.000053
    150 C51        -2.8380   -4.3150    1.9870 c         1 MOL      0.473105
    151 O21        -1.7570   -4.8930    1.8460 o         1 MOL     -0.527316
    152 C52        -2.5830   -3.7450   -0.5250 c3        1 MOL     -0.170768
    153 C53        -2.6750   -5.1830   -1.1150 c3        1 MOL     -0.262498
    154 C54        -3.9130   -5.3760   -2.0050 c         1 MOL      0.796943
    155 O22        -4.8330   -6.2180   -1.6750 o         1 MOL     -0.730551
    156 O23        -3.8690   -5.0580   -3.2230 o         1 MOL     -0.730551
    157 H67        -5.0240   -4.5420    0.6230 hn        1 MOL      0.145376
    158 H68        -3.1920   -2.3650    0.9720 h1        1 MOL      0.088558
    159 H69        -1.5610   -3.3490   -0.5560 hc        1 MOL      0.082811
    160 H70        -3.0050   -3.1960   -1.3540 hc        1 MOL      0.082811
    161 H71        -2.6290   -5.9610   -0.3560 hc        1 MOL      0.049261
    162 H72        -1.8880   -5.3170   -1.8540 hc        1 MOL      0.049261
    163 N14        -3.5960   -4.4270    3.1160 n         1 MOL     -0.416478
    164 C55        -4.6900   -3.5450    3.6490 c3        1 MOL      0.040676
    165 H73        -5.2110   -3.0710    2.8170 h1        1 MOL      0.035049
    166 H74        -5.3940   -4.1460    4.2240 h1        1 MOL      0.035049
    167 H75        -4.2580   -2.7770    4.2910 h1        1 MOL      0.035049
    168 H76        -3.3520   -5.1340    3.7970 hn        1 MOL      0.278340
    169 Ca1         5.8290    1.3780   -1.1760 Ca        1 MOL      1.788673
    170 O24         7.9550    2.7810   -2.2670 oh        1 MOL     -0.845047
    171 H77         8.6750    2.7420   -2.9040 ho        1 MOL      0.418369
    172 H78         8.2680    3.3790   -1.5860 ho        1 MOL      0.418369
    173 O25         4.7660    3.3810   -2.9570 oh        1 MOL     -0.845047
    174 H79         5.2590    3.6170   -3.7400 ho        1 MOL      0.418369
    175 H80         4.0840    4.0420   -2.8790 ho        1 MOL      0.418369
    176 O26         5.9310    0.8280   -3.8520 oh        1 MOL     -0.845047
    177 H81         5.2150    0.6400   -4.4670 ho        1 MOL      0.418369
    178 H82         6.7010    0.9460   -4.4080 ho        1 MOL      0.418369
    179 O27         4.1940    3.1950    0.1010 oh        1 MOL     -0.845047
    180 H83         3.5400    3.1350    0.8020 ho        1 MOL      0.418369
    181 H84         4.5070    4.1020    0.1410 ho        1 MOL      0.418369
@<TRIPOS>BOND
     1    1    2 1   
     2    1    4 1   
     3    1    5 1   
     4    1    6 1   
     5    2    3 2   
     6    2    7 1   
     7    7    8 1   
     8    7   15 1   
     9    8    9 1   
    10    8   11 1   
    11    8   16 1   
    12    9   10 2   
    13    9   19 1   
    14   11   12 1   
    15   11   17 1   
    16   11   18 1   
    17   12   13 1   
    18   12   14 1   
    19   19   20 1   
    20   19   24 1   
    21   20   21 1   
    22   20   23 1   
    23   20   25 1   
    24   21   22 2   
    25   21   29 1   
    26   23   26 1   
    27   23   27 1   
    28   23   28 1   
    29   29   30 1   
    30   29   37 1   
    31   30   31 1   
    32   30   33 1   
    33   30   38 1   
    34   31   32 2   
    35   31   41 1   
    36   33   34 1   
    37   33   39 1   
    38   33   40 1   
    39   34   35 1   
    40   34   36 1   
    41   41   42 1   
    42   41   45 1   
    43   42   43 1   
    44   42   46 1   
    45   42   47 1   
    46   43   44 2   
    47   43   48 1   
    48   48   49 1   
    49   48   56 1   
    50   49   50 1   
    51   49   52 1   
    52   49   57 1   
    53   50   51 2   
    54   50   62 1   
    55   52   53 1   
    56   52   58 1   
    57   52   59 1   
    58   53   54 1   
    59   53   55 2   
    60   54   60 1   
    61   54   61 1   
    62   62   63 1   
    63   62   66 1   
    64   63   64 1   
    65   63   67 1   
    66   63   68 1   
    67   64   65 2   
    68   64   69 1   
    69   69   70 1   
    70   69   76 1   
    71   70   71 1   
    72   70   73 1   
    73   70   77 1   
    74   71   72 2   
    75   71   83 1   
    76   73   74 1   
    77   73   75 1   
    78   73   78 1   
    79   74   80 1   
    80   74   81 1   
    81   74   82 1   
    82   75   79 1   
    83   83   84 1   
    84   83   91 1   
    85   84   85 1   
    86   84   87 1   
    87   84   92 1   
    88   85   86 2   
    89   85  102 1   
    90   87   88 1   
    91   87   89 1   
    92   87   93 1   
    93   88   90 1   
    94   88   94 1   
    95   88   95 1   
    96   89   96 1   
    97   89   97 1   
    98   89   98 1   
    99   90   99 1   
   100   90  100 1   
   101   90  101 1   
   102  102  103 1   
   103  102  110 1   
   104  103  104 1   
   105  103  106 1   
   106  103  111 1   
   107  104  105 2   
   108  104  114 1   
   109  106  107 1   
   110  106  112 1   
   111  106  113 1   
   112  107  108 1   
   113  107  109 1   
   114  114  115 1   
   115  114  125 1   
   116  115  116 1   
   117  115  118 1   
   118  115  126 1   
   119  116  117 2   
   120  116  134 1   
   121  118  119 1   
   122  118  127 1   
   123  118  128 1   
   124  119  120 ar  
   125  119  121 ar  
   126  120  122 ar  
   127  120  129 1   
   128  121  123 ar  
   129  121  130 1   
   130  122  124 ar  
   131  122  131 1   
   132  123  124 ar  
   133  123  132 1   
   134  124  133 1   
   135  134  135 1   
   136  134  140 1   
   137  135  136 1   
   138  135  138 1   
   139  135  141 1   
   140  136  137 2   
   141  136  148 1   
   142  138  139 1   
   143  138  142 1   
   144  138  143 1   
   145  139  140 1   
   146  139  144 1   
   147  139  145 1   
   148  140  146 1   
   149  140  147 1   
   150  148  149 1   
   151  148  157 1   
   152  149  150 1   
   153  149  152 1   
   154  149  158 1   
   155  150  151 2   
   156  150  163 1   
   157  152  153 1   
   158  152  159 1   
   159  152  160 1   
   160  153  154 1   
   161  153  161 1   
   162  153  162 1   
   163  154  155 1   
   164  154  156 1   
   165  163  164 1   
   166  163  168 1   
   167  164  165 1   
   168  164  166 1   
   169  164  167 1   
   170  170  171 1   
   171  170  172 1   
   172  173  174 1   
   173  173  175 1   
   174  176  177 1   
   175  176  178 1   
   176  179  180 1   
   177  179  181 1   
@<TRIPOS>SUBSTRUCTURE
     1 MOL         1 TEMP              0 ****  ****    0 ROOT
