@<TRIPOS>MOLECULE
MOL
  195   189     1     0     0
SMALL
resp


@<TRIPOS>ATOM
      1 C1         -4.1780   -3.4190    1.7930 c3        1 MOL     -0.116034
      2 C2         -3.2210   -3.5500    0.6070 c         1 MOL      0.560043
      3 O1         -2.7340   -2.5370    0.1520 o         1 MOL     -0.500334
      4 H1         -5.1700   -3.7580    1.4980 hc        1 MOL      0.022309
      5 H2         -3.8170   -4.0300    2.6200 hc        1 MOL      0.022309
      6 H3         -4.2290   -2.3760    2.1060 hc        1 MOL      0.022309
      7 N1         -2.8420   -4.7990    0.2300 n         1 MOL     -0.791445
      8 C3         -1.7090   -5.1030   -0.6730 c3        1 MOL      0.115807
      9 C4         -0.3550   -4.5870   -0.0940 c         1 MOL      0.646704
     10 O2          0.5630   -4.3640   -0.8960 o         1 MOL     -0.562755
     11 C5         -1.9500   -4.6440   -2.1630 c3        1 MOL     -0.177914
     12 C6         -3.3420   -4.9620   -2.5900 c         1 MOL      0.774303
     13 O3         -4.2370   -4.0680   -2.2880 o         1 MOL     -0.733076
     14 O4         -3.5620   -6.0540   -3.1200 o         1 MOL     -0.733076
     15 H4         -3.1570   -5.6140    0.7330 hn        1 MOL      0.377489
     16 H5         -1.5960   -6.1860   -0.7200 h1        1 MOL      0.083321
     17 H6         -1.3020   -5.2090   -2.8320 hc        1 MOL      0.061718
     18 H7         -1.6210   -3.6140   -2.2210 hc        1 MOL      0.061718
     19 N2         -0.1840   -4.5890    1.2240 n         1 MOL     -0.545115
     20 C7          0.9890   -4.1650    1.8880 c3        1 MOL     -0.440682
     21 C8          1.9350   -5.3220    2.0080 c         1 MOL      0.732180
     22 O5          1.5080   -6.4960    2.1660 o         1 MOL     -0.607180
     23 C9          0.7020   -3.4430    3.2140 c3        1 MOL      0.511812
     24 C10        -0.0960   -4.1960    4.2620 c3        1 MOL      0.052208
     25 C11         0.1920   -2.0600    2.8180 c3        1 MOL     -0.338725
     26 C12        -0.5460   -3.4570    5.5360 c3        1 MOL     -0.204322
     27 H8         -0.9970   -4.7930    1.7980 hn        1 MOL      0.330321
     28 H9          1.5130   -3.3850    1.3480 h1        1 MOL      0.156445
     29 H10         1.6700   -3.3140    3.6990 hc        1 MOL     -0.021131
     30 H11         0.6040   -4.9850    4.5100 hc        1 MOL     -0.009288
     31 H12        -0.9670   -4.7170    3.8800 hc        1 MOL     -0.009288
     32 H13        -0.8010   -2.0610    2.3430 hc        1 MOL      0.069988
     33 H14         0.1540   -1.4730    3.7320 hc        1 MOL      0.069988
     34 H15         0.9950   -1.5350    2.2990 hc        1 MOL      0.069988
     35 H16         0.2420   -2.8530    5.9960 hc        1 MOL      0.040993
     36 H17        -1.2880   -2.7780    5.1150 hc        1 MOL      0.040993
     37 H18        -1.0940   -4.0270    6.2820 hc        1 MOL      0.040993
     38 N3          3.2410   -5.1830    1.9370 n         1 MOL     -0.471687
     39 C13         4.1740   -4.0020    2.0740 c3        1 MOL      0.179670
     40 C14         4.6070   -3.4780    0.7270 c         1 MOL      0.366362
     41 O6          4.8300   -2.2500    0.5340 o         1 MOL     -0.444231
     42 C15         5.3020   -4.2040    3.1080 c3        1 MOL     -0.096767
     43 C16         5.0810   -5.1770    4.2610 c         1 MOL      0.632772
     44 O7          5.0200   -6.3890    3.9250 o         1 MOL     -0.702527
     45 O8          4.7180   -4.7460    5.3700 o         1 MOL     -0.702527
     46 H19         3.6680   -6.0650    1.7010 hn        1 MOL      0.252209
     47 H20         3.6210   -3.1720    2.5050 h1        1 MOL      0.035689
     48 H21         5.5230   -3.2030    3.4790 hc        1 MOL     -0.010185
     49 H22         6.1520   -4.5770    2.5350 hc        1 MOL     -0.010185
     50 N4          4.7510   -4.4180   -0.2390 n         1 MOL     -0.234887
     51 C17         5.0520   -4.1440   -1.6690 c3        1 MOL     -0.301897
     52 C18         6.4960   -3.6160   -1.8350 c         1 MOL      0.499446
     53 O9          7.5570   -4.2070   -1.4880 o         1 MOL     -0.563393
     54 H23         4.6400   -5.3480    0.1250 hn        1 MOL      0.266730
     55 H24         4.4600   -3.2450   -1.8470 h1        1 MOL      0.144877
     56 H25         4.7920   -5.0610   -2.1950 h1        1 MOL      0.144877
     57 N5          6.5030   -2.3640   -2.2570 n         1 MOL     -0.409628
     58 C19         7.7420   -1.4990   -2.3390 c3        1 MOL      0.146760
     59 C20         8.2160   -0.8250   -1.0270 c         1 MOL      0.396249
     60 O10         9.4040   -0.5010   -0.8680 o         1 MOL     -0.560573
     61 C21         7.6030   -0.5290   -3.5550 c3        1 MOL     -0.335205
     62 C22         6.3820    0.4540   -3.5100 c         1 MOL      0.718827
     63 O11         6.3510    1.3450   -4.3850 o         1 MOL     -0.715507
     64 O12         5.6990    0.3840   -2.4670 o         1 MOL     -0.715507
     65 H26         5.5950   -1.9730   -2.4660 hn        1 MOL      0.309509
     66 H27         8.6180   -2.1010   -2.5680 h1        1 MOL      0.054384
     67 H28         7.4980   -1.1520   -4.4500 hc        1 MOL      0.065389
     68 H29         8.5050    0.0730   -3.4960 hc        1 MOL      0.065389
     69 N6          7.3740   -0.8640   -0.0080 n         1 MOL     -0.027610
     70 C23         7.5650   -0.2500    1.2960 c3        1 MOL     -0.314760
     71 C24         7.3130    1.1980    1.3100 c         1 MOL      0.684961
     72 O13         7.7410    1.8380    2.2770 o         1 MOL     -0.584968
     73 H30         6.4850   -1.3130   -0.1850 hn        1 MOL      0.130182
     74 H31         8.5940   -0.4240    1.6280 h1        1 MOL      0.120156
     75 H32         6.8830   -0.7520    1.9800 h1        1 MOL      0.120156
     76 N7          6.6800    1.7710    0.2680 n         1 MOL     -0.285296
     77 C25         6.2680    3.2140    0.2480 c3        1 MOL     -0.111073
     78 C26         5.2210    3.5410    1.3390 c         1 MOL      0.562606
     79 O14         5.1910    4.6270    2.0350 o         1 MOL     -0.527446
     80 C27         7.4610    4.1570    0.0220 c3        1 MOL     -0.021028
     81 C28         7.9930    4.1340   -1.4240 c3        1 MOL     -0.159855
     82 C29         9.0890    5.1020   -1.7080 c         1 MOL      0.755713
     83 N8          9.6120    5.1720   -2.9140 n         1 MOL     -0.891755
     84 O15         9.6310    5.7550   -0.8410 o         1 MOL     -0.605499
     85 H33         6.3920    1.1150   -0.4450 hn        1 MOL      0.208552
     86 H34         5.6980    3.5190   -0.6220 h1        1 MOL      0.133981
     87 H35         8.2720    3.8300    0.6670 hc        1 MOL      0.031092
     88 H36         7.1460    5.1690    0.3040 hc        1 MOL      0.031092
     89 H37         7.1020    4.3770   -2.0100 hc        1 MOL      0.072669
     90 H38         8.3620    3.1080   -1.5220 hc        1 MOL      0.072669
     91 H39         9.3110    4.5680   -3.6560 hn        1 MOL      0.372803
     92 H40        10.4530    5.7260   -3.0010 hn        1 MOL      0.372803
     93 N9          4.2540    2.6020    1.4930 n         1 MOL     -0.572005
     94 C30         3.1910    2.6280    2.5100 c3        1 MOL     -0.047646
     95 C31         1.8480    2.3110    1.8630 c         1 MOL      0.529298
     96 O16         0.8110    2.6850    2.4910 o         1 MOL     -0.563346
     97 C32         3.4800    1.6700    3.6030 c3        1 MOL      0.298997
     98 C33         3.7810    0.1700    3.2660 c3        1 MOL     -0.279352
     99 C34         4.5190    2.2260    4.5620 c3        1 MOL     -0.279352
    100 H41         4.3370    1.8520    0.8110 hn        1 MOL      0.272846
    101 H42         3.2000    3.6300    2.9540 h1        1 MOL      0.138466
    102 H43         2.5550    1.6310    4.1730 hc        1 MOL     -0.042026
    103 H44         3.6160   -0.3200    4.2180 hc        1 MOL      0.066287
    104 H45         3.1450   -0.2390    2.4770 hc        1 MOL      0.066287
    105 H46         4.8080    0.0270    2.9400 hc        1 MOL      0.066287
    106 H47         4.1980    3.2580    4.7160 hc        1 MOL      0.066287
    107 H48         4.6390    1.6940    5.4990 hc        1 MOL      0.066287
    108 H49         5.4700    2.2160    4.0230 hc        1 MOL      0.066287
    109 N10         1.7630    1.7140    0.6930 n         1 MOL     -0.410488
    110 C35         0.5310    1.5840    0.0340 c3        1 MOL      0.071378
    111 C36        -0.1470    2.9440   -0.2780 c         1 MOL      0.407034
    112 O17         0.5300    4.0040   -0.4180 o         1 MOL     -0.440125
    113 C37         0.8300    0.8870   -1.3270 c3        1 MOL     -0.302375
    114 C38         1.2430   -0.5900   -1.2100 c         1 MOL      0.514788
    115 N11         0.4190   -1.3630   -0.6750 n         1 MOL     -0.503807
    116 O18         2.1810   -1.0250   -1.8860 o         1 MOL     -0.534242
    117 H50         2.6180    1.4870    0.1890 hn        1 MOL      0.318775
    118 H51        -0.1920    1.0300    0.6250 h1        1 MOL      0.046642
    119 H52         1.6620    1.4140   -1.8040 hc        1 MOL      0.117836
    120 H53        -0.1160    0.9400   -1.8710 hc        1 MOL      0.117836
    121 H54        -0.5270   -1.0180   -0.6400 hn        1 MOL      0.304542
    122 H55         0.5260   -2.3590   -0.7760 hn        1 MOL      0.304542
    123 N12        -1.4500    2.9230   -0.4080 n         1 MOL     -0.304368
    124 C39        -2.2870    4.0990   -0.6960 c3        1 MOL      0.051192
    125 C40        -3.6630    3.9860    0.0210 c         1 MOL      0.504819
    126 O19        -4.0480    2.9390    0.5230 o         1 MOL     -0.484530
    127 C41        -2.3920    4.1480   -2.2160 c3        1 MOL      0.163255
    128 C42        -1.1500    4.4590   -3.0020 ca        1 MOL     -0.132658
    129 C43        -0.4340    3.4120   -3.6460 ca        1 MOL     -0.091329
    130 C44        -0.6640    5.7470   -3.0010 ca        1 MOL     -0.091329
    131 C45         0.7840    3.6640   -4.3570 ca        1 MOL     -0.285214
    132 C46         0.4930    6.0740   -3.8120 ca        1 MOL     -0.285214
    133 C47         1.1890    5.0310   -4.4780 ca        1 MOL      0.351366
    134 O20         2.3310    5.3770   -5.2050 oh        1 MOL     -0.534350
    135 H56        -1.9130    2.0760   -0.1060 hn        1 MOL      0.214926
    136 H57        -1.7190    4.9870   -0.4170 h1        1 MOL      0.056104
    137 H58        -3.2140    4.8310   -2.4650 hc        1 MOL     -0.033330
    138 H59        -2.7520    3.1550   -2.4740 hc        1 MOL     -0.033330
    139 H60        -0.9850    2.4810   -3.7350 ha        1 MOL      0.121908
    140 H61        -1.1490    6.5170   -2.4100 ha        1 MOL      0.121908
    141 H62         1.3170    2.9010   -4.8910 ha        1 MOL      0.161868
    142 H63         0.9320    7.0630   -3.7260 ha        1 MOL      0.161868
    143 H64         2.7940    4.5480   -5.3300 ho        1 MOL      0.394857
    144 N13        -4.5530    5.0230   -0.0920 n         1 MOL     -0.431942
    145 C48        -5.8810    4.8930    0.5650 c3        1 MOL      0.088904
    146 C49        -6.9480    4.2930   -0.3620 c         1 MOL      0.480920
    147 O21        -7.1140    4.7440   -1.4700 o         1 MOL     -0.560716
    148 C50        -6.3640    6.1690    1.2790 c3        1 MOL      0.105253
    149 C51        -5.4700    6.5060    2.4920 c3        1 MOL     -0.104241
    150 C52        -5.9390    7.7160    3.2960 c         1 MOL      0.645572
    151 O22        -5.3200    8.7980    3.2670 o         1 MOL     -0.694828
    152 O23        -7.0480    7.7140    3.8850 o         1 MOL     -0.694828
    153 H65        -4.2470    5.9230   -0.4250 hn        1 MOL      0.287427
    154 H66        -5.6980    4.1870    1.3720 h1        1 MOL      0.021574
    155 H67        -7.3780    6.0290    1.6650 hc        1 MOL     -0.004386
    156 H68        -6.4210    7.0110    0.5960 hc        1 MOL     -0.004386
    157 H69        -4.4680    6.6550    2.0730 hc        1 MOL     -0.019131
    158 H70        -5.4320    5.6020    3.1100 hc        1 MOL     -0.019131
    159 N14        -7.7760    3.3020    0.0380 n         1 MOL     -0.447735
    160 C53        -7.5640    2.2990    1.0520 c3        1 MOL      0.102108
    161 C54        -8.4220    2.4770    2.3150 c         1 MOL      0.508104
    162 O24        -9.5040    3.0400    2.1370 o         1 MOL     -0.529117
    163 C55        -7.8280    0.8990    0.4900 c3        1 MOL      0.132185
    164 C56        -6.9550    0.4960   -0.7090 c3        1 MOL     -0.267500
    165 C57        -6.9060   -1.0250   -1.0030 c         1 MOL      0.807146
    166 O25        -7.6230   -1.8680   -0.4180 o         1 MOL     -0.764783
    167 O26        -6.3600   -1.4540   -1.9980 o         1 MOL     -0.764783
    168 H71        -8.6780    3.2040   -0.4120 hn        1 MOL      0.290100
    169 H72        -6.4970    2.3030    1.2880 h1        1 MOL      0.024685
    170 H73        -8.8950    0.8380    0.2820 hc        1 MOL     -0.061187
    171 H74        -7.5720    0.2370    1.3160 hc        1 MOL     -0.061187
    172 H75        -5.9240    0.8160   -0.5530 hc        1 MOL      0.094475
    173 H76        -7.4600    1.0340   -1.5150 hc        1 MOL      0.094475
    174 N15        -7.9650    1.9700    3.4820 n         1 MOL     -0.369382
    175 C58        -8.6510    1.9490    4.7750 c3        1 MOL     -0.167700
    176 H77        -9.6930    1.6640    4.6280 h1        1 MOL      0.093275
    177 H78        -8.1670    1.2260    5.4320 h1        1 MOL      0.093275
    178 H79        -8.6060    2.9390    5.2270 h1        1 MOL      0.093275
    179 H80        -7.1190    1.4270    3.4140 hn        1 MOL      0.294155
    180 Ca1        -6.8180   -3.9370   -1.9860 Ca        1 MOL      1.693252
    181 O27        -6.1620   -6.6270   -2.1180 oh        1 MOL     -0.791089
    182 H81        -5.9430   -7.1230   -1.3280 ho        1 MOL      0.385974
    183 H82        -5.3350   -6.5020   -2.5730 ho        1 MOL      0.385974
    184 O28        -8.6430   -5.8050   -3.4980 oh        1 MOL     -0.791089
    185 H83        -8.8280   -5.3300   -4.3040 ho        1 MOL      0.385974
    186 H84        -8.2440   -6.6240   -3.7790 ho        1 MOL      0.385974
    187 O29        -8.7620   -2.6270   -3.2530 oh        1 MOL     -0.791089
    188 H85        -8.7730   -1.9750   -3.9440 ho        1 MOL      0.385974
    189 H86        -9.6610   -2.9540   -3.2030 ho        1 MOL      0.385974
    190 O30        -9.1330   -4.5370   -0.6220 oh        1 MOL     -0.791089
    191 H87        -9.7070   -3.7870   -0.4560 ho        1 MOL      0.385974
    192 H88        -9.4880   -5.2290   -0.0640 ho        1 MOL      0.385974
    193 O31        -6.0210   -3.8450   -4.4900 oh        1 MOL     -0.791089
    194 H89        -5.7240   -4.6330   -4.9410 ho        1 MOL      0.385974
    195 H90        -6.2140   -3.2140   -5.1830 ho        1 MOL      0.385974
@<TRIPOS>BOND
     1    1    2 1   
     2    1    4 1   
     3    1    5 1   
     4    1    6 1   
     5    2    3 2   
     6    2    7 1   
     7    7    8 1   
     8    7   15 1   
     9    8    9 1   
    10    8   11 1   
    11    8   16 1   
    12    9   10 2   
    13    9   19 1   
    14   11   12 1   
    15   11   17 1   
    16   11   18 1   
    17   12   13 1   
    18   12   14 1   
    19   19   20 1   
    20   19   27 1   
    21   20   21 1   
    22   20   23 1   
    23   20   28 1   
    24   21   22 2   
    25   21   38 1   
    26   23   24 1   
    27   23   25 1   
    28   23   29 1   
    29   24   26 1   
    30   24   30 1   
    31   24   31 1   
    32   25   32 1   
    33   25   33 1   
    34   25   34 1   
    35   26   35 1   
    36   26   36 1   
    37   26   37 1   
    38   38   39 1   
    39   38   46 1   
    40   39   40 1   
    41   39   42 1   
    42   39   47 1   
    43   40   41 2   
    44   40   50 1   
    45   42   43 1   
    46   42   48 1   
    47   42   49 1   
    48   43   44 1   
    49   43   45 1   
    50   50   51 1   
    51   50   54 1   
    52   51   52 1   
    53   51   55 1   
    54   51   56 1   
    55   52   53 2   
    56   52   57 1   
    57   57   58 1   
    58   57   65 1   
    59   58   59 1   
    60   58   61 1   
    61   58   66 1   
    62   59   60 2   
    63   59   69 1   
    64   61   62 1   
    65   61   67 1   
    66   61   68 1   
    67   62   63 1   
    68   62   64 1   
    69   69   70 1   
    70   69   73 1   
    71   70   71 1   
    72   70   74 1   
    73   70   75 1   
    74   71   72 2   
    75   71   76 1   
    76   76   77 1   
    77   76   85 1   
    78   77   78 1   
    79   77   80 1   
    80   77   86 1   
    81   78   79 2   
    82   78   93 1   
    83   80   81 1   
    84   80   87 1   
    85   80   88 1   
    86   81   82 1   
    87   81   89 1   
    88   81   90 1   
    89   82   83 1   
    90   82   84 2   
    91   83   91 1   
    92   83   92 1   
    93   93   94 1   
    94   93  100 1   
    95   94   95 1   
    96   94   97 1   
    97   94  101 1   
    98   95   96 2   
    99   95  109 1   
   100   97   98 1   
   101   97   99 1   
   102   97  102 1   
   103   98  103 1   
   104   98  104 1   
   105   98  105 1   
   106   99  106 1   
   107   99  107 1   
   108   99  108 1   
   109  109  110 1   
   110  109  117 1   
   111  110  111 1   
   112  110  113 1   
   113  110  118 1   
   114  111  112 2   
   115  111  123 1   
   116  113  114 1   
   117  113  119 1   
   118  113  120 1   
   119  114  115 1   
   120  114  116 2   
   121  115  121 1   
   122  115  122 1   
   123  123  124 1   
   124  123  135 1   
   125  124  125 1   
   126  124  127 1   
   127  124  136 1   
   128  125  126 2   
   129  125  144 1   
   130  127  128 1   
   131  127  137 1   
   132  127  138 1   
   133  128  129 ar  
   134  128  130 ar  
   135  129  131 ar  
   136  129  139 1   
   137  130  132 ar  
   138  130  140 1   
   139  131  133 ar  
   140  131  141 1   
   141  132  133 ar  
   142  132  142 1   
   143  133  134 1   
   144  134  143 1   
   145  144  145 1   
   146  144  153 1   
   147  145  146 1   
   148  145  148 1   
   149  145  154 1   
   150  146  147 2   
   151  146  159 1   
   152  148  149 1   
   153  148  155 1   
   154  148  156 1   
   155  149  150 1   
   156  149  157 1   
   157  149  158 1   
   158  150  151 1   
   159  150  152 1   
   160  159  160 1   
   161  159  168 1   
   162  160  161 1   
   163  160  163 1   
   164  160  169 1   
   165  161  162 2   
   166  161  174 1   
   167  163  164 1   
   168  163  170 1   
   169  163  171 1   
   170  164  165 1   
   171  164  172 1   
   172  164  173 1   
   173  165  166 1   
   174  165  167 1   
   175  174  175 1   
   176  174  179 1   
   177  175  176 1   
   178  175  177 1   
   179  175  178 1   
   180  181  182 1   
   181  181  183 1   
   182  184  185 1   
   183  184  186 1   
   184  187  188 1   
   185  187  189 1   
   186  190  191 1   
   187  190  192 1   
   188  193  194 1   
   189  193  195 1   
@<TRIPOS>SUBSTRUCTURE
     1 MOL         1 TEMP              0 ****  ****    0 ROOT
