@<TRIPOS>MOLECULE
MOL
  195   189     1     0     0
SMALL
resp


@<TRIPOS>ATOM
      1 C1          3.7210   -2.1220   -2.3870 c3        1 MOL      0.055407
      2 C2          2.7540   -2.8900   -1.4590 c         1 MOL      0.560386
      3 O1          1.7790   -2.4010   -0.9460 o         1 MOL     -0.489780
      4 H1          3.6470   -2.5200   -3.3990 hc        1 MOL     -0.030202
      5 H2          3.4560   -1.0640   -2.3930 hc        1 MOL     -0.030202
      6 H3          4.7420   -2.2380   -2.0240 hc        1 MOL     -0.030202
      7 N1          3.0080   -4.1800   -1.2490 n         1 MOL     -0.485812
      8 C3          2.2120   -5.0790   -0.4000 c3        1 MOL     -0.131048
      9 C4          0.6650   -5.1440   -0.7760 c         1 MOL      0.607048
     10 O2         -0.1180   -5.6840   -0.0260 o         1 MOL     -0.486656
     11 C5          2.4040   -4.9280    1.1560 c3        1 MOL     -0.261909
     12 C6          3.8750   -4.7420    1.4820 c         1 MOL      0.771792
     13 O3          4.3090   -3.5700    1.6950 o         1 MOL     -0.763855
     14 O4          4.6900   -5.7230    1.6320 o         1 MOL     -0.763855
     15 H4          3.8480   -4.5500   -1.6610 hn        1 MOL      0.269544
     16 H5          2.5580   -6.0670   -0.6860 h1        1 MOL      0.120231
     17 H6          1.9520   -5.7000    1.7670 hc        1 MOL      0.123796
     18 H7          1.8250   -4.0730    1.5080 hc        1 MOL      0.123796
     19 N2          0.2570   -4.5780   -1.9910 n         1 MOL     -0.414152
     20 C7         -1.1220   -4.5940   -2.4280 c3        1 MOL      0.024300
     21 C8         -1.6300   -6.0230   -2.7910 c         1 MOL      0.601471
     22 O5         -0.8440   -6.9130   -3.0460 o         1 MOL     -0.579850
     23 C9         -1.3930   -3.4370   -3.3450 c3        1 MOL     -0.025212
     24 C10        -0.5220   -3.5370   -4.5870 c3        1 MOL     -0.189676
     25 C11        -1.1160   -2.1280   -2.6490 c3        1 MOL     -0.156446
     26 C12        -1.0270   -2.5650   -5.6630 c3        1 MOL     -0.094494
     27 H8          0.9120   -4.2630   -2.6820 hn        1 MOL      0.196964
     28 H9         -1.6830   -4.4140   -1.5130 h1        1 MOL      0.112755
     29 H10        -2.4310   -3.5110   -3.6600 hc        1 MOL      0.121997
     30 H11        -0.5910   -4.5780   -4.9000 hc        1 MOL      0.088224
     31 H12         0.4980   -3.2260   -4.3790 hc        1 MOL      0.088224
     32 H13        -1.6790   -2.0580   -1.7110 hc        1 MOL      0.067372
     33 H14        -0.0980   -1.9530   -2.3260 hc        1 MOL      0.067372
     34 H15        -1.3340   -1.2240   -3.2110 hc        1 MOL      0.067372
     35 H16        -0.2740   -2.5430   -6.4580 hc        1 MOL      0.015227
     36 H17        -1.9600   -2.8370   -6.1650 hc        1 MOL      0.015227
     37 H18        -1.1710   -1.5280   -5.3880 hc        1 MOL      0.015227
     38 N3         -2.9690   -6.2370   -2.6680 n         1 MOL     -0.611911
     39 C13        -4.0410   -5.4090   -2.0710 c3        1 MOL      0.286177
     40 C14        -4.4600   -5.7240   -0.6240 c         1 MOL      0.477846
     41 O6         -3.9720   -6.7300   -0.0710 o         1 MOL     -0.559236
     42 C15        -5.3140   -5.6210   -3.0020 c3        1 MOL     -0.306000
     43 C16        -6.4260   -4.5630   -2.8150 c         1 MOL      0.727157
     44 O7         -7.5870   -4.8780   -3.2150 o         1 MOL     -0.711211
     45 O8         -6.2800   -3.4690   -2.1940 o         1 MOL     -0.711211
     46 H19        -3.2820   -7.1930   -2.7520 hn        1 MOL      0.320373
     47 H20        -3.7730   -4.3660   -2.2680 h1        1 MOL     -0.107262
     48 H21        -5.7050   -6.6370   -2.9200 hc        1 MOL      0.057988
     49 H22        -5.0400   -5.5000   -4.0580 hc        1 MOL      0.057988
     50 N4         -5.3010   -4.8980    0.0220 n         1 MOL     -0.339471
     51 C17        -5.4850   -4.9180    1.5000 c3        1 MOL     -0.116498
     52 C18        -6.3670   -3.7800    1.9830 c         1 MOL      0.434237
     53 O9         -7.5880   -3.7500    1.7870 o         1 MOL     -0.494075
     54 H23        -5.7840   -4.2520   -0.5890 hn        1 MOL      0.269002
     55 H24        -4.4860   -4.8180    1.9280 h1        1 MOL      0.084370
     56 H25        -5.8540   -5.9100    1.7940 h1        1 MOL      0.084370
     57 N5         -5.7040   -2.7800    2.5150 n         1 MOL     -0.372978
     58 C19        -6.4020   -1.6380    3.1640 c3        1 MOL      0.061589
     59 C20        -7.4490   -0.8570    2.3550 c         1 MOL      0.243679
     60 O10        -8.5660   -0.5630    2.8140 o         1 MOL     -0.524916
     61 C21        -5.4150   -0.6090    3.7150 c3        1 MOL     -0.188428
     62 C22        -4.4030   -0.1610    2.6950 c         1 MOL      0.710317
     63 O11        -3.4210   -0.8940    2.4290 o         1 MOL     -0.674872
     64 O12        -4.5200    0.9930    2.2160 o         1 MOL     -0.674872
     65 H26        -4.7250   -2.9020    2.6980 hn        1 MOL      0.262221
     66 H27        -6.8550   -1.9730    4.0970 h1        1 MOL      0.077815
     67 H28        -4.9110   -1.1850    4.4940 hc        1 MOL      0.036937
     68 H29        -5.9980    0.1860    4.1850 hc        1 MOL      0.036937
     69 N6         -7.1400   -0.5730    1.1180 n         1 MOL      0.210282
     70 C23        -7.8990    0.1450    0.1850 c3        1 MOL     -0.456297
     71 C24        -7.9360    1.6480    0.3840 c         1 MOL      0.548203
     72 O13        -8.6850    2.4390   -0.2450 o         1 MOL     -0.577109
     73 H30        -6.2510   -0.8370    0.7300 hn        1 MOL      0.171274
     74 H31        -8.9420   -0.1670    0.2850 h1        1 MOL      0.153219
     75 H32        -7.5280   -0.0230   -0.8340 h1        1 MOL      0.153219
     76 N7         -7.0180    2.0540    1.2830 n         1 MOL     -0.029635
     77 C25        -6.7110    3.4410    1.5950 c3        1 MOL     -0.091028
     78 C26        -6.3210    4.3740    0.3570 c         1 MOL      0.536371
     79 O14        -6.6320    5.5790    0.4630 o         1 MOL     -0.523676
     80 C27        -7.7240    4.0500    2.6290 c3        1 MOL     -0.034726
     81 C28        -7.8470    3.1470    3.8120 c3        1 MOL     -0.038491
     82 C29        -8.3220    3.7580    5.1630 c         1 MOL      0.553412
     83 N8         -9.5790    4.1610    5.1580 n         1 MOL     -0.727459
     84 O15        -7.6370    3.7330    6.1710 o         1 MOL     -0.553804
     85 H33        -6.4510    1.3890    1.7990 hn        1 MOL     -0.030865
     86 H34        -5.8010    3.3510    2.1920 h1        1 MOL      0.122324
     87 H35        -8.6920    4.1840    2.1640 hc        1 MOL      0.020838
     88 H36        -7.4240    5.0510    2.9240 hc        1 MOL      0.020838
     89 H37        -6.8980    2.6600    4.0280 hc        1 MOL      0.054585
     90 H38        -8.6060    2.4050    3.5870 hc        1 MOL      0.054585
     91 H39       -10.0800    4.4350    4.3310 hn        1 MOL      0.325083
     92 H40        -9.8620    4.5670    6.0480 hn        1 MOL      0.325083
     93 N9         -5.7270    3.8070   -0.7330 n         1 MOL     -0.530451
     94 C30        -5.3930    4.4970   -2.0360 c3        1 MOL     -0.056516
     95 C31        -3.8930    4.2960   -2.3470 c         1 MOL      0.599906
     96 O16        -3.3960    5.0040   -3.2400 o         1 MOL     -0.600071
     97 C32        -6.4630    4.1890   -3.1160 c3        1 MOL      0.260069
     98 C33        -6.5540    2.6670   -3.2840 c3        1 MOL     -0.289156
     99 C34        -7.8170    4.8310   -2.8880 c3        1 MOL     -0.289156
    100 H41        -5.5940    2.8040   -0.7460 hn        1 MOL      0.305863
    101 H42        -5.4870    5.5640   -1.8440 h1        1 MOL      0.107042
    102 H43        -6.0790    4.6110   -4.0470 hc        1 MOL     -0.037002
    103 H44        -6.9320    2.1830   -2.3710 hc        1 MOL      0.072605
    104 H45        -7.1760    2.3700   -4.1280 hc        1 MOL      0.072605
    105 H46        -5.5580    2.2600   -3.4450 hc        1 MOL      0.072605
    106 H47        -7.6870    5.9070   -2.8560 hc        1 MOL      0.072605
    107 H48        -8.5230    4.5820   -3.6730 hc        1 MOL      0.072605
    108 H49        -8.2270    4.4410   -1.9590 hc        1 MOL      0.072605
    109 N10        -3.2180    3.3350   -1.7630 n         1 MOL     -0.424833
    110 C35        -1.7650    3.0920   -2.0190 c3        1 MOL      0.058945
    111 C36        -0.7890    3.1400   -0.7310 c         1 MOL      0.585228
    112 O17        -1.2990    2.9900    0.3820 o         1 MOL     -0.504614
    113 C37        -1.7460    1.7240   -2.6720 c3        1 MOL     -0.012985
    114 C38        -0.6970    1.6510   -3.7960 c         1 MOL      0.530011
    115 N11        -1.2000    1.2540   -4.9560 n         1 MOL     -0.655881
    116 O18         0.5080    2.0040   -3.7450 o         1 MOL     -0.533254
    117 H50        -3.6900    2.7210   -1.1090 hn        1 MOL      0.250612
    118 H51        -1.3960    3.8310   -2.7370 h1        1 MOL      0.073562
    119 H52        -2.7230    1.5200   -3.1170 hc        1 MOL      0.019941
    120 H53        -1.5070    0.9370   -1.9610 hc        1 MOL      0.019941
    121 H54        -2.1910    1.1450   -5.0700 hn        1 MOL      0.329231
    122 H55        -0.4820    1.2810   -5.6630 hn        1 MOL      0.329231
    123 N12         0.5550    3.2360   -0.9320 n         1 MOL     -0.570954
    124 C39         1.5820    3.3550    0.1140 c3        1 MOL      0.078757
    125 C40         2.8940    3.9570   -0.4320 c         1 MOL      0.734001
    126 O19         3.1830    3.6890   -1.5880 o         1 MOL     -0.571044
    127 C41         1.9150    1.8720    0.5360 c3        1 MOL     -0.398213
    128 C42         2.7200    1.6270    1.7970 ca        1 MOL      0.207719
    129 C43         4.0080    1.1560    1.6680 ca        1 MOL     -0.182333
    130 C44         2.1030    1.8710    3.0490 ca        1 MOL     -0.182333
    131 C45         4.7190    0.8040    2.8250 ca        1 MOL     -0.274756
    132 C46         2.7750    1.4790    4.2410 ca        1 MOL     -0.274756
    133 C47         4.1230    0.9280    4.1010 ca        1 MOL      0.325865
    134 O20         4.7720    0.6100    5.2630 oh        1 MOL     -0.489168
    135 H56         0.9380    3.1170   -1.8600 hn        1 MOL      0.294233
    136 H57         1.1780    4.0120    0.8770 h1        1 MOL      0.086093
    137 H58         2.4880    1.4140   -0.2690 hc        1 MOL      0.170624
    138 H59         1.0000    1.2780    0.5070 hc        1 MOL      0.170624
    139 H60         4.4310    0.9640    0.6940 ha        1 MOL      0.174182
    140 H61         1.1050    2.2770    3.1040 ha        1 MOL      0.174182
    141 H62         5.6940    0.3340    2.7990 ha        1 MOL      0.160462
    142 H63         2.3240    1.6660    5.2030 ha        1 MOL      0.160462
    143 H64         5.6700    0.3890    5.0020 ho        1 MOL      0.299624
    144 N13         3.7630    4.6530    0.3340 n         1 MOL     -0.861788
    145 C48         5.1040    5.0070   -0.1300 c3        1 MOL      0.562525
    146 C49         6.1480    4.3620    0.7970 c         1 MOL      0.335552
    147 O21         6.4440    4.9160    1.8660 o         1 MOL     -0.521175
    148 C50         5.1930    6.5310   -0.3990 c3        1 MOL      0.082342
    149 C51         6.6120    6.9780   -0.7960 c3        1 MOL     -0.466456
    150 C52         6.5510    8.6130   -0.6980 c         1 MOL      0.738830
    151 O22         6.6150    9.2330   -1.7530 o         1 MOL     -0.710941
    152 O23         6.5130    9.1120    0.4420 o         1 MOL     -0.710941
    153 H65         3.6040    4.8050    1.3160 hn        1 MOL      0.354956
    154 H66         5.3420    4.4170   -1.0210 h1        1 MOL     -0.143012
    155 H67         4.9240    7.0560    0.5170 hc        1 MOL      0.008019
    156 H68         4.4730    6.8550   -1.1600 hc        1 MOL      0.008019
    157 H69         6.8640    6.5790   -1.7730 hc        1 MOL      0.126026
    158 H70         7.3780    6.7180   -0.0640 hc        1 MOL      0.126026
    159 N14         6.8690    3.2360    0.4700 n         1 MOL     -0.353497
    160 C53         6.8300    2.5110   -0.7980 c3        1 MOL     -0.072822
    161 C54         7.2660    3.3380   -2.0290 c         1 MOL      0.229934
    162 O24         8.2420    4.1120   -2.0360 o         1 MOL     -0.432960
    163 C55         7.6650    1.2010   -0.7590 c3        1 MOL      0.390733
    164 C56         7.2500    0.2110    0.2910 c3        1 MOL     -0.175228
    165 C57         8.0950   -1.0680    0.4030 c         1 MOL      0.674458
    166 O25         7.6000   -2.2310    0.2870 o         1 MOL     -0.713153
    167 O26         9.3600   -0.9720    0.4610 o         1 MOL     -0.713153
    168 H71         7.4380    2.9220    1.2520 hn        1 MOL      0.272841
    169 H72         5.8090    2.2000   -1.0300 h1        1 MOL      0.078032
    170 H73         8.7300    1.4240   -0.6580 hc        1 MOL     -0.063500
    171 H74         7.5470    0.7290   -1.7340 hc        1 MOL     -0.063500
    172 H75         6.2140   -0.0210    0.0650 hc        1 MOL     -0.004991
    173 H76         7.4130    0.7010    1.2550 hc        1 MOL     -0.004991
    174 N15         6.4610    3.1470   -3.1660 n         1 MOL     -0.153406
    175 C58         6.7060    3.6870   -4.5400 c3        1 MOL     -0.187017
    176 H77         6.7460    2.8630   -5.2530 h1        1 MOL      0.088825
    177 H78         5.8980    4.3660   -4.8150 h1        1 MOL      0.088825
    178 H79         7.6540    4.2260   -4.5560 h1        1 MOL      0.088825
    179 H80         5.8490    2.3470   -3.2170 hn        1 MOL      0.226769
    180 Ca1         6.7930   -4.2770    1.7260 Ca        1 MOL      1.661245
    181 O27         6.2470   -4.8380    4.2670 oh        1 MOL     -0.803302
    182 H81         5.4020   -4.6040    4.6640 ho        1 MOL      0.395902
    183 H82         6.8620   -4.8390    4.9970 ho        1 MOL      0.395902
    184 O28         8.9600   -3.8700    3.2090 oh        1 MOL     -0.803302
    185 H83         9.0140   -4.1380    4.1240 ho        1 MOL      0.395902
    186 H84         9.7250   -3.3200    3.0810 ho        1 MOL      0.395902
    187 O29         7.8760   -6.7770    1.5650 oh        1 MOL     -0.803302
    188 H85         7.5430   -7.6610    1.4190 ho        1 MOL      0.395902
    189 H86         8.7770   -6.9030    1.8670 ho        1 MOL      0.395902
    190 O30         9.4040   -4.7930    0.2320 oh        1 MOL     -0.803302
    191 H87         9.5420   -5.1290   -0.6470 ho        1 MOL      0.395902
    192 H88         9.7230   -3.8820    0.1840 ho        1 MOL      0.395902
    193 O31         6.3180   -2.0330    3.3800 oh        1 MOL     -0.803302
    194 H89         5.6790   -2.2320    4.0660 ho        1 MOL      0.395902
    195 H90         6.8610   -1.3340    3.7600 ho        1 MOL      0.395902
@<TRIPOS>BOND
     1    1    2 1   
     2    1    4 1   
     3    1    5 1   
     4    1    6 1   
     5    2    3 2   
     6    2    7 1   
     7    7    8 1   
     8    7   15 1   
     9    8    9 1   
    10    8   11 1   
    11    8   16 1   
    12    9   10 2   
    13    9   19 1   
    14   11   12 1   
    15   11   17 1   
    16   11   18 1   
    17   12   13 1   
    18   12   14 1   
    19   19   20 1   
    20   19   27 1   
    21   20   21 1   
    22   20   23 1   
    23   20   28 1   
    24   21   22 2   
    25   21   38 1   
    26   23   24 1   
    27   23   25 1   
    28   23   29 1   
    29   24   26 1   
    30   24   30 1   
    31   24   31 1   
    32   25   32 1   
    33   25   33 1   
    34   25   34 1   
    35   26   35 1   
    36   26   36 1   
    37   26   37 1   
    38   38   39 1   
    39   38   46 1   
    40   39   40 1   
    41   39   42 1   
    42   39   47 1   
    43   40   41 2   
    44   40   50 1   
    45   42   43 1   
    46   42   48 1   
    47   42   49 1   
    48   43   44 1   
    49   43   45 1   
    50   50   51 1   
    51   50   54 1   
    52   51   52 1   
    53   51   55 1   
    54   51   56 1   
    55   52   53 2   
    56   52   57 1   
    57   57   58 1   
    58   57   65 1   
    59   58   59 1   
    60   58   61 1   
    61   58   66 1   
    62   59   60 2   
    63   59   69 1   
    64   61   62 1   
    65   61   67 1   
    66   61   68 1   
    67   62   63 1   
    68   62   64 1   
    69   69   70 1   
    70   69   73 1   
    71   70   71 1   
    72   70   74 1   
    73   70   75 1   
    74   71   72 2   
    75   71   76 1   
    76   76   77 1   
    77   76   85 1   
    78   77   78 1   
    79   77   80 1   
    80   77   86 1   
    81   78   79 2   
    82   78   93 1   
    83   80   81 1   
    84   80   87 1   
    85   80   88 1   
    86   81   82 1   
    87   81   89 1   
    88   81   90 1   
    89   82   83 1   
    90   82   84 2   
    91   83   91 1   
    92   83   92 1   
    93   93   94 1   
    94   93  100 1   
    95   94   95 1   
    96   94   97 1   
    97   94  101 1   
    98   95   96 2   
    99   95  109 1   
   100   97   98 1   
   101   97   99 1   
   102   97  102 1   
   103   98  103 1   
   104   98  104 1   
   105   98  105 1   
   106   99  106 1   
   107   99  107 1   
   108   99  108 1   
   109  109  110 1   
   110  109  117 1   
   111  110  111 1   
   112  110  113 1   
   113  110  118 1   
   114  111  112 2   
   115  111  123 1   
   116  113  114 1   
   117  113  119 1   
   118  113  120 1   
   119  114  115 1   
   120  114  116 2   
   121  115  121 1   
   122  115  122 1   
   123  123  124 1   
   124  123  135 1   
   125  124  125 1   
   126  124  127 1   
   127  124  136 1   
   128  125  126 2   
   129  125  144 1   
   130  127  128 1   
   131  127  137 1   
   132  127  138 1   
   133  128  129 ar  
   134  128  130 ar  
   135  129  131 ar  
   136  129  139 1   
   137  130  132 ar  
   138  130  140 1   
   139  131  133 ar  
   140  131  141 1   
   141  132  133 ar  
   142  132  142 1   
   143  133  134 1   
   144  134  143 1   
   145  144  145 1   
   146  144  153 1   
   147  145  146 1   
   148  145  148 1   
   149  145  154 1   
   150  146  147 2   
   151  146  159 1   
   152  148  149 1   
   153  148  155 1   
   154  148  156 1   
   155  149  150 1   
   156  149  157 1   
   157  149  158 1   
   158  150  151 1   
   159  150  152 1   
   160  159  160 1   
   161  159  168 1   
   162  160  161 1   
   163  160  163 1   
   164  160  169 1   
   165  161  162 2   
   166  161  174 1   
   167  163  164 1   
   168  163  170 1   
   169  163  171 1   
   170  164  165 1   
   171  164  172 1   
   172  164  173 1   
   173  165  166 1   
   174  165  167 1   
   175  174  175 1   
   176  174  179 1   
   177  175  176 1   
   178  175  177 1   
   179  175  178 1   
   180  181  182 1   
   181  181  183 1   
   182  184  185 1   
   183  184  186 1   
   184  187  188 1   
   185  187  189 1   
   186  190  191 1   
   187  190  192 1   
   188  193  194 1   
   189  193  195 1   
@<TRIPOS>SUBSTRUCTURE
     1 MOL         1 TEMP              0 ****  ****    0 ROOT
