@<TRIPOS>MOLECULE
MOL
  195   189     1     0     0
SMALL
resp


@<TRIPOS>ATOM
      1 C1         -1.3140    7.1050   -3.8860 c3        1 MOL     -0.409414
      2 C2         -1.4800    6.3030   -2.6160 c         1 MOL      0.680434
      3 O1         -0.8400    6.6840   -1.6260 o         1 MOL     -0.615156
      4 H1         -0.4800    6.7040   -4.4610 hc        1 MOL      0.116818
      5 H2         -2.2270    7.0420   -4.4780 hc        1 MOL      0.116818
      6 H3         -1.1140    8.1460   -3.6350 hc        1 MOL      0.116818
      7 N1         -2.3320    5.2580   -2.5750 n         1 MOL     -0.457310
      8 C3         -2.5360    4.3260   -1.4250 c3        1 MOL      0.199558
      9 C4         -1.3580    3.4700   -1.0510 c         1 MOL      0.008794
     10 O2         -1.3080    2.9260    0.0380 o         1 MOL     -0.414230
     11 C5         -3.7230    3.3080   -1.5510 c3        1 MOL     -0.526658
     12 C6         -3.4880    2.3640   -2.8250 c         1 MOL      0.825832
     13 O3         -3.7450    2.8200   -3.9700 o         1 MOL     -0.742290
     14 O4         -3.1520    1.2230   -2.6430 o         1 MOL     -0.742290
     15 H4         -2.7160    4.9850   -3.4760 hn        1 MOL      0.269804
     16 H5         -2.6960    4.9370   -0.5350 h1        1 MOL      0.067706
     17 H6         -4.6460    3.8860   -1.6630 hc        1 MOL      0.177830
     18 H7         -3.8270    2.5720   -0.7520 hc        1 MOL      0.177830
     19 N2         -0.3660    3.3510   -1.9590 n         1 MOL     -0.020057
     20 C7          0.9350    2.6680   -1.7270 c3        1 MOL      0.214281
     21 C8          1.9580    3.6410   -1.1810 c         1 MOL      0.392369
     22 O5          2.0540    4.7650   -1.6860 o         1 MOL     -0.563928
     23 C9          1.3750    2.0490   -3.0700 c3        1 MOL      0.253001
     24 C10         0.3910    1.1410   -3.8810 c3        1 MOL     -0.416756
     25 C11        -0.1920   -0.1020   -3.0710 c3        1 MOL      0.232962
     26 C12        -0.9260   -1.1310   -3.8180 c3        1 MOL      0.059496
     27 N3         -2.0280   -0.5660   -4.6030 n4        1 MOL     -0.532602
     28 H8         -0.5090    3.9280   -2.7800 hn        1 MOL      0.146988
     29 H9          0.7370    1.7990   -1.0950 h1        1 MOL      0.088775
     30 H10         2.2890    1.4720   -2.9300 hc        1 MOL     -0.047523
     31 H11         1.6150    2.9000   -3.7070 hc        1 MOL     -0.047523
     32 H12         0.8990    0.7650   -4.7710 hc        1 MOL      0.089025
     33 H13        -0.4920    1.7410   -4.0970 hc        1 MOL      0.089025
     34 H14        -0.7230    0.2990   -2.2050 hc        1 MOL     -0.024638
     35 H15         0.5820   -0.6820   -2.5740 hc        1 MOL     -0.024638
     36 H16        -1.4000   -1.7780   -3.0770 hx        1 MOL      0.055538
     37 H17        -0.1800   -1.5990   -4.4660 hx        1 MOL      0.055538
     38 H18        -1.7960   -0.4900   -5.5740 hn        1 MOL      0.351515
     39 H19        -2.8010   -1.1990   -4.4790 hn        1 MOL      0.351515
     40 H20        -2.3170    0.3470   -4.2660 hn        1 MOL      0.351515
     41 N4          2.7990    3.4090   -0.1910 n         1 MOL     -0.416612
     42 C13         2.9860    2.1640    0.6050 c3        1 MOL     -0.065111
     43 C14         3.3350    0.8670   -0.1220 c         1 MOL      0.600909
     44 O6          2.5510   -0.0560   -0.1740 o         1 MOL     -0.606279
     45 C15         1.8440    2.0280    1.6260 c3        1 MOL     -0.147914
     46 C16         1.7570    3.2520    2.5330 c         1 MOL      0.751019
     47 O7          0.6420    3.4580    3.0680 o         1 MOL     -0.732973
     48 O8          2.7110    4.0200    2.8030 o         1 MOL     -0.732973
     49 H21         3.4630    4.1470    0.0320 hn        1 MOL      0.316157
     50 H22         3.8610    2.2980    1.2400 h1        1 MOL      0.108378
     51 H23         2.0270    1.0890    2.1520 hc        1 MOL      0.058311
     52 H24         0.9360    1.8390    1.0640 hc        1 MOL      0.058311
     53 N5          4.4120    0.7900   -0.9030 n         1 MOL     -0.328872
     54 C17         5.4730    1.8180   -1.0400 c3        1 MOL     -0.017127
     55 C18         6.5650    1.4950   -2.0110 c         1 MOL      0.526706
     56 O9          6.3400    0.8650   -3.0070 o         1 MOL     -0.553199
     57 H25         4.4930   -0.0150   -1.5130 hn        1 MOL      0.218597
     58 H26         5.8730    1.9570   -0.0310 h1        1 MOL      0.021637
     59 H27         5.0610    2.7740   -1.3510 h1        1 MOL      0.021637
     60 N6          7.8550    1.6880   -1.7140 n         1 MOL     -0.353676
     61 C19         8.4870    2.1630   -0.5140 c3        1 MOL     -0.107129
     62 C20         8.5220    0.9610    0.4720 c         1 MOL      0.550360
     63 O10         8.9550    1.1820    1.6150 o         1 MOL     -0.555108
     64 C21         9.8450    2.6530   -0.9150 c3        1 MOL     -0.119585
     65 C22        10.7380    1.5290   -1.5350 c         1 MOL      0.734043
     66 O11        10.3190    0.9860   -2.5910 o         1 MOL     -0.688311
     67 O12        11.8920    1.3410   -1.2540 o         1 MOL     -0.688311
     68 H28         8.5270    1.3310   -2.3810 hn        1 MOL      0.204439
     69 H29         7.8760    2.9620   -0.0810 h1        1 MOL      0.096332
     70 H30        10.3450    3.0510   -0.0310 hc        1 MOL      0.027019
     71 H31         9.7950    3.4970   -1.5990 hc        1 MOL      0.027019
     72 N7          8.0750   -0.2580    0.1860 n         1 MOL     -0.301887
     73 C23         8.3350   -1.4510    0.9250 c3        1 MOL     -0.058417
     74 C24         7.3970   -2.6050    0.5160 c         1 MOL      0.617797
     75 O13         7.1220   -2.8310   -0.6440 o         1 MOL     -0.519681
     76 H32         7.5860   -0.4450   -0.6820 hn        1 MOL      0.255763
     77 H33         8.2200   -1.2270    1.9900 h1        1 MOL      0.060492
     78 H34         9.3520   -1.7990    0.7420 h1        1 MOL      0.060492
     79 N8          6.8510   -3.3590    1.4800 n         1 MOL     -0.665095
     80 C25         5.8670   -4.4290    1.1580 c3        1 MOL      0.235579
     81 C26         4.5360   -3.8570    0.7520 c         1 MOL      0.387057
     82 O14         4.1050   -2.6950    1.0630 o         1 MOL     -0.508286
     83 C27         5.6730   -5.3890    2.3990 c3        1 MOL      0.248413
     84 C28         7.0040   -6.0700    2.5560 c3        1 MOL     -0.447019
     85 O15         4.8630   -6.4230    1.9520 oh        1 MOL     -0.572560
     86 H35         7.0890   -3.2490    2.4530 hn        1 MOL      0.342247
     87 H36         6.2290   -4.9700    0.2920 h1        1 MOL      0.068666
     88 H37         5.2400   -4.8400    3.2300 h1        1 MOL      0.046486
     89 H38         4.1920   -6.5220    2.6350 ho        1 MOL      0.392513
     90 H39         6.8560   -7.0430    3.0400 hc        1 MOL      0.124065
     91 H40         7.4640   -6.4110    1.6340 hc        1 MOL      0.124065
     92 H41         7.7860   -5.4780    3.0270 hc        1 MOL      0.124065
     93 N9          3.7510   -4.7030    0.0960 n         1 MOL     -0.434498
     94 C29         2.4430   -4.4590   -0.4350 c3        1 MOL     -0.042100
     95 C30         1.4940   -5.2150    0.5000 c         1 MOL      0.638457
     96 O16         1.5310   -6.4250    0.5710 o         1 MOL     -0.563491
     97 C31         2.2400   -4.8170   -1.8780 c3        1 MOL      0.244476
     98 C32         3.2380   -4.1380   -2.7540 c3        1 MOL      0.018355
     99 C33         0.8870   -4.3400   -2.4180 c3        1 MOL     -0.231380
    100 C34         3.5580   -2.6720   -2.4170 c3        1 MOL     -0.072054
    101 H42         4.1710   -5.6170   -0.0610 hn        1 MOL      0.273804
    102 H43         2.1920   -3.3990   -0.3220 h1        1 MOL      0.135399
    103 H44         2.2810   -5.8860   -2.0780 hc        1 MOL     -0.017383
    104 H45         2.8760   -4.2460   -3.7770 hc        1 MOL     -0.006014
    105 H46         4.1570   -4.7270   -2.6950 hc        1 MOL     -0.006014
    106 H47         0.0750   -4.6830   -1.7660 hc        1 MOL      0.023097
    107 H48         0.7130   -3.2630   -2.3320 hc        1 MOL      0.023097
    108 H49         0.7460   -4.5960   -3.4620 hc        1 MOL      0.023097
    109 H50         4.3580   -2.6280   -1.6830 hc        1 MOL      0.035750
    110 H51         3.9260   -2.3490   -3.3910 hc        1 MOL      0.035750
    111 H52         2.5820   -2.2670   -2.1520 hc        1 MOL      0.035750
    112 N10         0.4270   -4.5880    1.0520 n         1 MOL     -0.562713
    113 C35        -0.7700   -5.2770    1.7020 c3        1 MOL      0.062407
    114 C36        -2.1880   -4.9670    1.1460 c         1 MOL      0.412718
    115 O17        -3.1550   -5.5850    1.4430 o         1 MOL     -0.455582
    116 C37        -0.8480   -4.9100    3.1850 c3        1 MOL      0.478867
    117 C38         0.4940   -5.2280    3.8580 c3        1 MOL     -0.303808
    118 O18        -1.7630   -5.5750    3.9560 oh        1 MOL     -0.661967
    119 H53         0.3070   -3.6130    0.8180 hn        1 MOL      0.257329
    120 H54        -0.7480   -6.3670    1.6460 h1        1 MOL      0.122075
    121 H55        -0.9710   -3.8340    3.3300 h1        1 MOL     -0.035355
    122 H56        -1.9500   -5.0410    4.7230 ho        1 MOL      0.423470
    123 H57         1.2700   -4.4810    3.6680 hc        1 MOL      0.065987
    124 H58         0.3640   -5.1960    4.9440 hc        1 MOL      0.065987
    125 H59         0.8830   -6.1870    3.4990 hc        1 MOL      0.065987
    126 N11        -2.2110   -3.9240    0.3050 n         1 MOL     -0.429878
    127 C39        -3.5170   -3.6060   -0.3850 c3        1 MOL     -0.192860
    128 C40        -4.5450   -3.0810    0.5950 c         1 MOL      0.488533
    129 O19        -4.2620   -2.8850    1.7970 o         1 MOL     -0.468742
    130 C41        -4.0130   -4.7270   -1.3280 c3        1 MOL      0.390261
    131 C42        -2.9440   -5.2040   -2.3410 c3        1 MOL     -0.325512
    132 O20        -5.0680   -4.1750   -2.1300 oh        1 MOL     -0.644327
    133 H60        -1.3610   -3.3980    0.1630 hn        1 MOL      0.314297
    134 H61        -3.2550   -2.8580   -1.1320 h1        1 MOL      0.186062
    135 H62        -4.3430   -5.6480   -0.8540 h1        1 MOL      0.029735
    136 H63        -5.7450   -4.8480   -2.2900 ho        1 MOL      0.384658
    137 H64        -3.2710   -6.1550   -2.7570 hc        1 MOL      0.084644
    138 H65        -2.6870   -4.4380   -3.0760 hc        1 MOL      0.084644
    139 H66        -1.9720   -5.3910   -1.8880 hc        1 MOL      0.084644
    140 N12        -5.8140   -2.8830    0.2160 n         1 MOL     -0.258397
    141 C43        -6.9710   -2.7070    1.0110 c3        1 MOL     -0.186504
    142 C44        -7.2320   -1.2820    1.4810 c         1 MOL      0.570068
    143 O21        -8.2160   -1.0330    2.1700 o         1 MOL     -0.573399
    144 C45        -8.1420   -3.3050    0.2370 c3        1 MOL     -0.042475
    145 C46        -8.5970   -2.5890   -1.0960 c3        1 MOL     -0.048558
    146 C47        -9.6550   -3.6200   -1.6420 c3        1 MOL     -0.072594
    147 C48       -10.3610   -2.9050   -2.7600 c3        1 MOL      0.202418
    148 N13       -11.2990   -3.6770   -3.5490 n4        1 MOL     -0.490596
    149 H67        -5.9490   -2.8410   -0.7790 hn        1 MOL      0.199237
    150 H68        -6.7440   -3.2440    1.9350 h1        1 MOL      0.175796
    151 H69        -9.0240   -3.3530    0.8750 hc        1 MOL      0.049800
    152 H70        -7.8840   -4.3310   -0.0210 hc        1 MOL      0.049800
    153 H71        -7.8010   -2.4330   -1.8210 hc        1 MOL      0.060596
    154 H72        -9.0750   -1.6250   -0.8980 hc        1 MOL      0.060596
    155 H73       -10.3810   -3.9720   -0.9020 hc        1 MOL      0.034541
    156 H74        -9.1420   -4.5060   -1.9990 hc        1 MOL      0.034541
    157 H75        -9.5420   -2.5570   -3.3750 hx        1 MOL      0.036660
    158 H76       -10.8650   -1.9980   -2.4320 hx        1 MOL      0.036660
    159 H77       -12.1070   -3.8310   -2.9630 hn        1 MOL      0.364543
    160 H78       -11.4830   -3.0810   -4.3420 hn        1 MOL      0.364543
    161 H79       -10.8930   -4.5610   -3.8300 hn        1 MOL      0.364543
    162 N14        -6.3030   -0.3960    1.1660 n         1 MOL     -0.347916
    163 C49        -6.3130    0.9300    1.7230 c3        1 MOL     -0.051723
    164 C50        -6.9910    2.0080    0.8340 c         1 MOL      0.468855
    165 O22        -6.6050    2.1630   -0.3040 o         1 MOL     -0.508346
    166 C51        -4.9130    1.3510    2.2150 c3        1 MOL      0.031207
    167 C52        -4.6680    2.4690    3.2150 c3        1 MOL     -0.026564
    168 C53        -3.3140    3.1780    3.0950 c         1 MOL      0.476116
    169 O23        -2.3230    2.7950    3.7810 o         1 MOL     -0.635519
    170 O24        -3.2520    4.2640    2.4290 o         1 MOL     -0.635519
    171 H80        -5.5350   -0.6650    0.5580 hn        1 MOL      0.236442
    172 H81        -6.9660    0.9020    2.6020 h1        1 MOL      0.069605
    173 H82        -4.3980    1.6910    1.3140 hc        1 MOL      0.066557
    174 H83        -4.3670    0.4840    2.5920 hc        1 MOL      0.066557
    175 H84        -4.7680    1.9180    4.1530 hc        1 MOL     -0.013589
    176 H85        -5.5560    3.0910    3.1940 hc        1 MOL     -0.013589
    177 N15        -8.1070    2.5570    1.3340 n         1 MOL     -0.260042
    178 C54        -9.0340    3.3700    0.4440 c3        1 MOL     -0.333125
    179 H86        -9.6830    3.9880    1.0640 h1        1 MOL      0.139228
    180 H87        -8.4420    4.0090   -0.2120 h1        1 MOL      0.139228
    181 H88        -9.6440    2.6960   -0.1590 h1        1 MOL      0.139228
    182 H89        -8.3200    2.2570    2.2810 hn        1 MOL      0.253728
    183 Ca1        -1.0990    5.4270    3.0310 Ca        1 MOL      1.773270
    184 O25        -0.7690    5.0420    5.9120 oh        1 MOL     -0.908213
    185 H90         0.1140    4.6750    5.8190 ho        1 MOL      0.438009
    186 H91        -0.8500    5.2470    6.8410 ho        1 MOL      0.438009
    187 O26        -2.3570    7.3690    1.4640 oh        1 MOL     -0.908213
    188 H92        -3.2160    7.6280    1.1270 ho        1 MOL      0.438009
    189 H93        -1.7290    7.8320    0.9110 ho        1 MOL      0.438009
    190 O27         0.2830    5.8430    0.7730 oh        1 MOL     -0.908213
    191 H94        -0.1570    6.0340   -0.0520 ho        1 MOL      0.438009
    192 H95         1.2140    5.9550    0.5810 ho        1 MOL      0.438009
    193 O28         1.2480    6.1740    4.0250 oh        1 MOL     -0.908213
    194 H96         1.8740    5.5030    3.7570 ho        1 MOL      0.438009
    195 H97         1.7670    6.9840    4.0610 ho        1 MOL      0.438009
@<TRIPOS>BOND
     1    1    2 1   
     2    1    4 1   
     3    1    5 1   
     4    1    6 1   
     5    2    3 2   
     6    2    7 1   
     7    7    8 1   
     8    7   15 1   
     9    8    9 1   
    10    8   11 1   
    11    8   16 1   
    12    9   10 2   
    13    9   19 1   
    14   11   12 1   
    15   11   17 1   
    16   11   18 1   
    17   12   13 1   
    18   12   14 1   
    19   19   20 1   
    20   19   28 1   
    21   20   21 1   
    22   20   23 1   
    23   20   29 1   
    24   21   22 2   
    25   21   41 1   
    26   23   24 1   
    27   23   30 1   
    28   23   31 1   
    29   24   25 1   
    30   24   32 1   
    31   24   33 1   
    32   25   26 1   
    33   25   34 1   
    34   25   35 1   
    35   26   27 1   
    36   26   36 1   
    37   26   37 1   
    38   27   38 1   
    39   27   39 1   
    40   27   40 1   
    41   41   42 1   
    42   41   49 1   
    43   42   43 1   
    44   42   45 1   
    45   42   50 1   
    46   43   44 2   
    47   43   53 1   
    48   45   46 1   
    49   45   51 1   
    50   45   52 1   
    51   46   47 1   
    52   46   48 1   
    53   53   54 1   
    54   53   57 1   
    55   54   55 1   
    56   54   58 1   
    57   54   59 1   
    58   55   56 2   
    59   55   60 1   
    60   60   61 1   
    61   60   68 1   
    62   61   62 1   
    63   61   64 1   
    64   61   69 1   
    65   62   63 2   
    66   62   72 1   
    67   64   65 1   
    68   64   70 1   
    69   64   71 1   
    70   65   66 1   
    71   65   67 1   
    72   72   73 1   
    73   72   76 1   
    74   73   74 1   
    75   73   77 1   
    76   73   78 1   
    77   74   75 2   
    78   74   79 1   
    79   79   80 1   
    80   79   86 1   
    81   80   81 1   
    82   80   83 1   
    83   80   87 1   
    84   81   82 2   
    85   81   93 1   
    86   83   84 1   
    87   83   85 1   
    88   83   88 1   
    89   84   90 1   
    90   84   91 1   
    91   84   92 1   
    92   85   89 1   
    93   93   94 1   
    94   93  101 1   
    95   94   95 1   
    96   94   97 1   
    97   94  102 1   
    98   95   96 2   
    99   95  112 1   
   100   97   98 1   
   101   97   99 1   
   102   97  103 1   
   103   98  100 1   
   104   98  104 1   
   105   98  105 1   
   106   99  106 1   
   107   99  107 1   
   108   99  108 1   
   109  100  109 1   
   110  100  110 1   
   111  100  111 1   
   112  112  113 1   
   113  112  119 1   
   114  113  114 1   
   115  113  116 1   
   116  113  120 1   
   117  114  115 2   
   118  114  126 1   
   119  116  117 1   
   120  116  118 1   
   121  116  121 1   
   122  117  123 1   
   123  117  124 1   
   124  117  125 1   
   125  118  122 1   
   126  126  127 1   
   127  126  133 1   
   128  127  128 1   
   129  127  130 1   
   130  127  134 1   
   131  128  129 2   
   132  128  140 1   
   133  130  131 1   
   134  130  132 1   
   135  130  135 1   
   136  131  137 1   
   137  131  138 1   
   138  131  139 1   
   139  132  136 1   
   140  140  141 1   
   141  140  149 1   
   142  141  142 1   
   143  141  144 1   
   144  141  150 1   
   145  142  143 2   
   146  142  162 1   
   147  144  145 1   
   148  144  151 1   
   149  144  152 1   
   150  145  146 1   
   151  145  153 1   
   152  145  154 1   
   153  146  147 1   
   154  146  155 1   
   155  146  156 1   
   156  147  148 1   
   157  147  157 1   
   158  147  158 1   
   159  148  159 1   
   160  148  160 1   
   161  148  161 1   
   162  162  163 1   
   163  162  171 1   
   164  163  164 1   
   165  163  166 1   
   166  163  172 1   
   167  164  165 2   
   168  164  177 1   
   169  166  167 1   
   170  166  173 1   
   171  166  174 1   
   172  167  168 1   
   173  167  175 1   
   174  167  176 1   
   175  168  169 1   
   176  168  170 1   
   177  177  178 1   
   178  177  182 1   
   179  178  179 1   
   180  178  180 1   
   181  178  181 1   
   182  184  185 1   
   183  184  186 1   
   184  187  188 1   
   185  187  189 1   
   186  190  191 1   
   187  190  192 1   
   188  193  194 1   
   189  193  195 1   
@<TRIPOS>SUBSTRUCTURE
     1 MOL         1 TEMP              0 ****  ****    0 ROOT
