@<TRIPOS>MOLECULE
MOL
  188   182     1     0     0
SMALL
resp


@<TRIPOS>ATOM
      1 C1          4.5240   -0.4010    5.8690 c3        1 MOL     -0.361725
      2 C2          3.6500   -0.2560    4.6230 c         1 MOL      0.718352
      3 O1          2.4210   -0.2540    4.7570 o         1 MOL     -0.617576
      4 H1          5.2520   -1.1960    5.7110 hc        1 MOL      0.087643
      5 H2          5.0460    0.5370    6.0580 hc        1 MOL      0.087643
      6 H3          3.8970   -0.6480    6.7260 hc        1 MOL      0.087643
      7 N1          4.2360   -0.1520    3.4820 n         1 MOL     -0.539192
      8 C3          3.5630   -0.1360    2.1440 c3        1 MOL      0.127660
      9 C4          3.3390   -1.5910    1.5650 c         1 MOL      0.601765
     10 O2          2.5000   -1.9240    0.7220 o         1 MOL     -0.711483
     11 C5          4.3630    0.7120    1.1230 c3        1 MOL     -0.115742
     12 C6          5.8400    0.3980    1.0800 c         1 MOL      0.573333
     13 O3          6.2420   -0.7160    0.6240 o         1 MOL     -0.636810
     14 O4          6.5820    1.2950    1.5200 o         1 MOL     -0.636810
     15 H4          5.2430   -0.1510    3.5150 hn        1 MOL      0.328572
     16 H5          2.5590    0.2160    2.3730 h1        1 MOL      0.095701
     17 H6          4.2330    1.7620    1.3820 hc        1 MOL      0.017794
     18 H7          3.9200    0.5470    0.1310 hc        1 MOL      0.017794
     19 N2          4.2420   -2.5180    1.9820 n         1 MOL     -0.597258
     20 C7          4.1030   -3.9560    1.5580 c3        1 MOL      0.140875
     21 C8          4.7010   -4.2180    0.1200 c         1 MOL      0.596291
     22 O5          5.1610   -5.3750   -0.0480 o         1 MOL     -0.589315
     23 C9          4.6860   -4.9120    2.6470 c3        1 MOL      0.007384
     24 C10         6.1110   -4.6540    2.9810 c3        1 MOL      0.131378
     25 C11         6.5980   -5.5690    4.1350 c3        1 MOL     -0.097994
     26 C12         6.3190   -7.0840    3.9600 c3        1 MOL      0.089555
     27 N3          6.9100   -7.9030    5.0000 n4        1 MOL     -0.331066
     28 H8          5.1010   -2.1990    2.4110 hn        1 MOL      0.269756
     29 H9          3.0890   -4.2470    1.3120 h1        1 MOL      0.078917
     30 H10         4.6560   -5.9220    2.2410 hc        1 MOL     -0.021428
     31 H11         4.0340   -4.8400    3.5200 hc        1 MOL     -0.021428
     32 H12         6.2070   -3.6590    3.4140 hc        1 MOL      0.010044
     33 H13         6.7290   -4.7090    2.0810 hc        1 MOL      0.010044
     34 H14         6.1360   -5.1550    5.0330 hc        1 MOL      0.027772
     35 H15         7.6760   -5.3750    4.1420 hc        1 MOL      0.027772
     36 H16         6.7760   -7.4210    3.0330 hx        1 MOL      0.081602
     37 H17         5.2470   -7.2800    4.0430 hx        1 MOL      0.081602
     38 H18         6.9320   -8.8850    4.7780 hn        1 MOL      0.315433
     39 H19         7.8500   -7.6240    5.2700 hn        1 MOL      0.315433
     40 H20         6.3490   -7.8100    5.8340 hn        1 MOL      0.315433
     41 N4          4.5700   -3.3300   -0.8390 n         1 MOL     -0.464929
     42 C13         5.0360   -3.3110   -2.1980 c3        1 MOL      0.053248
     43 C14         5.1470   -1.8810   -2.8290 c         1 MOL      0.509597
     44 O6          5.0550   -1.7640   -4.0160 o         1 MOL     -0.501123
     45 C15         4.0490   -4.1260   -3.0840 c3        1 MOL     -0.290887
     46 C16         2.6370   -3.6210   -3.0800 c         1 MOL      0.728407
     47 O7          1.8880   -3.8970   -4.0190 o         1 MOL     -0.690725
     48 O8          2.1000   -2.9020   -2.2210 o         1 MOL     -0.690725
     49 H21         4.0020   -2.5320   -0.5740 hn        1 MOL      0.216584
     50 H22         6.0690   -3.6630   -2.2080 h1        1 MOL      0.104017
     51 H23         4.0670   -5.1730   -2.7600 hc        1 MOL      0.090594
     52 H24         4.3890   -4.0950   -4.1170 hc        1 MOL      0.090594
     53 N5          5.3500   -0.8980   -2.0010 n         1 MOL     -0.430248
     54 C17         5.4680    0.5360   -2.4660 c3        1 MOL      0.073857
     55 C18         6.7980    0.9500   -3.0840 c         1 MOL      0.548791
     56 O9          7.7100    0.1320   -3.3110 o         1 MOL     -0.518345
     57 H25         5.4190   -1.1240   -1.0230 hn        1 MOL      0.292415
     58 H26         5.2380    1.1400   -1.5900 h1        1 MOL      0.059940
     59 H27         4.6150    0.7410   -3.1200 h1        1 MOL      0.059940
     60 N6          7.0140    2.2310   -3.3890 n         1 MOL     -0.530812
     61 C19         6.0270    3.2750   -3.0770 c3        1 MOL      0.068219
     62 C20         6.1830    3.7810   -1.6740 c         1 MOL      0.729437
     63 O10         7.2400    4.2940   -1.3160 o         1 MOL     -0.567774
     64 C21         6.1670    4.3950   -4.0570 c3        1 MOL     -0.510684
     65 C22         6.0270    4.0560   -5.5070 c         1 MOL      0.831318
     66 N7          7.1370    3.8950   -6.1600 n         1 MOL     -0.835611
     67 O11         4.9520    4.0580   -6.0570 o         1 MOL     -0.589114
     68 H28         7.9200    2.4530   -3.7830 hn        1 MOL      0.307429
     69 H29         5.0410    2.8400   -3.2590 h1        1 MOL      0.062698
     70 H30         7.0910    4.9540   -3.9090 hc        1 MOL      0.143792
     71 H31         5.3480    5.0430   -3.7580 hc        1 MOL      0.143792
     72 H32         7.9860    3.8320   -5.6020 hn        1 MOL      0.378284
     73 H33         7.1570    3.5650   -7.1080 hn        1 MOL      0.378284
     74 N8          5.2090    3.7580   -0.7890 n         1 MOL     -0.552386
     75 C23         3.8130    3.6200   -1.1400 c3        1 MOL     -0.001501
     76 C24         2.9090    4.1710   -0.0450 c         1 MOL      0.768448
     77 O12         3.4350    4.6580    0.9180 o         1 MOL     -0.526406
     78 H34         5.4580    3.7010    0.1890 hn        1 MOL      0.322089
     79 H35         3.6130    2.6080   -1.4760 h1        1 MOL      0.022524
     80 H36         3.7130    4.3310   -1.9560 h1        1 MOL      0.022524
     81 N9          1.5930    4.0470   -0.2760 n         1 MOL     -0.739612
     82 C25         0.4610    4.3890    0.6280 c3        1 MOL      0.273388
     83 C26        -0.7150    3.4370    0.6160 c         1 MOL      0.695120
     84 O13        -0.7060    2.5150   -0.2130 o         1 MOL     -0.596163
     85 C27         0.0170    5.8800    0.3250 c3        1 MOL     -0.157695
     86 C28        -0.7310    6.5680    1.5420 ca        1 MOL      0.025320
     87 C29        -2.0950    7.0100    1.4940 ca        1 MOL     -0.144143
     88 C30        -0.1240    6.6140    2.8170 ca        1 MOL     -0.144143
     89 C31        -2.7740    7.5720    2.5970 ca        1 MOL     -0.260311
     90 C32        -0.7420    7.3130    3.8490 ca        1 MOL     -0.260311
     91 C33        -2.0410    7.8550    3.7570 ca        1 MOL      0.337888
     92 O14        -2.6940    8.2810    4.9010 oh        1 MOL     -0.501893
     93 H37         1.2720    3.6380   -1.1460 hn        1 MOL      0.328072
     94 H38         0.8890    4.3940    1.6340 h1        1 MOL      0.005520
     95 H39        -0.6880    5.9060   -0.5170 hc        1 MOL      0.081719
     96 H40         0.8740    6.4910    0.0490 hc        1 MOL      0.081719
     97 H41        -2.5890    6.9360    0.5300 ha        1 MOL      0.140125
     98 H42         0.8450    6.1840    3.0020 ha        1 MOL      0.140125
     99 H43        -3.8280    7.8080    2.5510 ha        1 MOL      0.147564
    100 H44        -0.1560    7.6040    4.7080 ha        1 MOL      0.147564
    101 H45        -2.2090    8.1520    5.7210 ho        1 MOL      0.369079
    102 N10        -1.7610    3.6270    1.4470 n         1 MOL     -0.605207
    103 C34        -3.0040    2.7930    1.4430 c3        1 MOL     -0.064394
    104 C35        -3.9910    3.1420    0.2990 c         1 MOL      0.704589
    105 O15        -4.2130    4.2920    0.0020 o         1 MOL     -0.559200
    106 C36        -3.8050    2.8110    2.8440 c3        1 MOL      0.388527
    107 C37        -3.3750    1.6770    3.8130 c3        1 MOL      0.020650
    108 C38        -3.7540    4.1550    3.6280 c3        1 MOL     -0.116153
    109 C39        -4.0080    1.7120    5.1970 c3        1 MOL     -0.135253
    110 H46        -1.7300    4.3970    2.1070 hn        1 MOL      0.265752
    111 H47        -2.6960    1.7510    1.3020 h1        1 MOL      0.056426
    112 H48        -4.8520    2.6740    2.5420 hc        1 MOL     -0.098559
    113 H49        -2.2930    1.7180    3.9190 hc        1 MOL     -0.018541
    114 H50        -3.6160    0.7560    3.2700 hc        1 MOL     -0.018541
    115 H51        -2.7580    4.2190    4.0650 hc        1 MOL      0.028757
    116 H52        -4.0260    5.0140    3.0130 hc        1 MOL      0.028757
    117 H53        -4.5680    4.1260    4.3630 hc        1 MOL      0.028757
    118 H54        -5.0550    1.9990    5.1510 hc        1 MOL      0.030347
    119 H55        -4.1530    0.7030    5.5910 hc        1 MOL      0.030347
    120 H56        -3.5540    2.4520    5.8630 hc        1 MOL      0.030347
    121 N11        -4.6990    2.1020   -0.1940 n         1 MOL     -0.530780
    122 C40        -5.8800    2.2610   -1.0930 c3        1 MOL      0.091642
    123 C41        -6.2390    1.0980   -1.9320 c         1 MOL      0.595304
    124 O16        -5.9370   -0.0320   -1.5700 o         1 MOL     -0.469679
    125 C42        -7.0340    2.8830   -0.1940 c3        1 MOL      0.009403
    126 O17        -7.3890    2.1110    0.9980 oh        1 MOL     -0.574754
    127 H57        -4.6220    1.1380    0.1270 hn        1 MOL      0.286381
    128 H58        -5.6900    3.0540   -1.8130 h1        1 MOL      0.042248
    129 H59        -7.9200    3.1840   -0.7610 h1        1 MOL      0.061973
    130 H60        -6.7360    3.8620    0.1730 h1        1 MOL      0.061973
    131 H61        -8.0800    2.6690    1.3460 ho        1 MOL      0.397692
    132 N12        -6.9050    1.2810   -3.0820 n         1 MOL     -0.601630
    133 C43        -7.1730    0.2240   -4.0300 c3        1 MOL      0.251686
    134 C44        -7.8570   -1.0710   -3.5090 c         1 MOL      0.279015
    135 O18        -7.5460   -2.1530   -4.0160 o         1 MOL     -0.412738
    136 C45        -5.8980    0.0730   -4.8970 c3        1 MOL     -0.441036
    137 H62        -7.0390    2.2330   -3.3950 hn        1 MOL      0.325114
    138 H63        -7.9770    0.7010   -4.5950 h1        1 MOL      0.040063
    139 H64        -5.8690   -0.8390   -5.4900 hc        1 MOL      0.141004
    140 H65        -5.8080    0.9710   -5.5030 hc        1 MOL      0.141004
    141 H66        -5.0420    0.0520   -4.2090 hc        1 MOL      0.141004
    142 N13        -8.6960   -0.9440   -2.4570 n         1 MOL     -0.213886
    143 C46        -9.4760   -2.0540   -1.8240 c3        1 MOL      0.168768
    144 C47        -8.6320   -3.2100   -1.2430 c         1 MOL      0.303441
    145 O19        -9.0590   -4.3610   -1.1880 o         1 MOL     -0.457237
    146 C48       -10.5100   -2.4950   -2.9050 c3        1 MOL     -0.242494
    147 H67        -9.0230   -0.0080   -2.2510 hn        1 MOL      0.190927
    148 H68       -10.0420   -1.6300   -0.9910 h1        1 MOL      0.038935
    149 H69       -10.0400   -3.1470   -3.6440 hc        1 MOL      0.070864
    150 H70       -11.4140   -2.9270   -2.4980 hc        1 MOL      0.070864
    151 H71       -10.7910   -1.5670   -3.4080 hc        1 MOL      0.070864
    152 N14        -7.4270   -2.8690   -0.8660 n         1 MOL     -0.138012
    153 C49        -6.3650   -3.6730   -0.2810 c3        1 MOL     -0.012175
    154 C50        -6.8130   -4.3720    0.9870 c         1 MOL      0.474185
    155 O20        -7.0540   -5.5540    1.0470 o         1 MOL     -0.501462
    156 C51        -5.1880   -2.8450   -0.1960 c3        1 MOL      0.257691
    157 C52        -3.9900   -3.4870    0.4470 c3        1 MOL     -0.590068
    158 C53        -2.7920   -2.5770    0.4150 c         1 MOL      1.025193
    159 O21        -2.2620   -2.1080   -0.6410 o         1 MOL     -0.848969
    160 O22        -2.1310   -2.2560    1.4770 o         1 MOL     -0.848969
    161 H72        -7.2770   -1.8720   -0.9310 hn        1 MOL      0.051605
    162 H73        -5.9620   -4.4690   -0.9090 h1        1 MOL      0.077194
    163 H74        -5.4980   -2.0040    0.4350 hc        1 MOL      0.020865
    164 H75        -5.0450   -2.4390   -1.1950 hc        1 MOL      0.020865
    165 H76        -3.7610   -4.3600   -0.1630 hc        1 MOL      0.124165
    166 H77        -4.1890   -3.7620    1.4780 hc        1 MOL      0.124165
    167 N15        -7.1300   -3.5940    2.0650 n         1 MOL     -0.215859
    168 C54        -7.8070   -3.9940    3.3270 c3        1 MOL     -0.523413
    169 H78        -7.3600   -4.9140    3.7030 h1        1 MOL      0.187725
    170 H79        -7.6890   -3.2040    4.0690 h1        1 MOL      0.187725
    171 H80        -8.8670   -4.1570    3.1360 h1        1 MOL      0.187725
    172 H81        -6.9700   -2.6010    1.9510 hn        1 MOL      0.201815
    173 Ca1         0.2470   -2.4540   -0.4650 Ca        1 MOL      1.786728
    174 O23        -0.1420   -0.6810    1.4980 oh        1 MOL     -0.829972
    175 H82        -0.0400   -0.0450    2.1970 ho        1 MOL      0.402795
    176 H83        -1.0200   -1.0450    1.6190 ho        1 MOL      0.402795
    177 O24         0.4390    0.1580   -1.1900 oh        1 MOL     -0.829972
    178 H84         0.6160    0.3100   -2.1150 ho        1 MOL      0.402795
    179 H85        -0.0670    0.9200   -0.9080 ho        1 MOL      0.402795
    180 O25         0.3070   -3.6090    2.0240 oh        1 MOL     -0.829972
    181 H86         0.8810   -3.5170    2.7930 ho        1 MOL      0.402795
    182 H87        -0.4860   -3.1350    2.2690 ho        1 MOL      0.402795
    183 O26        -0.3440   -2.4190   -3.0750 oh        1 MOL     -0.829972
    184 H88         0.5420   -2.5170   -3.4350 ho        1 MOL      0.402795
    185 H89        -0.9200   -2.4490   -3.8260 ho        1 MOL      0.402795
    186 O27        -0.8520   -4.8650   -1.1560 oh        1 MOL     -0.829972
    187 H90        -1.2440   -5.0450   -2.0050 ho        1 MOL      0.402795
    188 H91        -1.1320   -5.5860   -0.5980 ho        1 MOL      0.402795
@<TRIPOS>BOND
     1    1    2 1   
     2    1    4 1   
     3    1    5 1   
     4    1    6 1   
     5    2    3 2   
     6    2    7 1   
     7    7    8 1   
     8    7   15 1   
     9    8    9 1   
    10    8   11 1   
    11    8   16 1   
    12    9   10 2   
    13    9   19 1   
    14   11   12 1   
    15   11   17 1   
    16   11   18 1   
    17   12   13 1   
    18   12   14 1   
    19   19   20 1   
    20   19   28 1   
    21   20   21 1   
    22   20   23 1   
    23   20   29 1   
    24   21   22 2   
    25   21   41 1   
    26   23   24 1   
    27   23   30 1   
    28   23   31 1   
    29   24   25 1   
    30   24   32 1   
    31   24   33 1   
    32   25   26 1   
    33   25   34 1   
    34   25   35 1   
    35   26   27 1   
    36   26   36 1   
    37   26   37 1   
    38   27   38 1   
    39   27   39 1   
    40   27   40 1   
    41   41   42 1   
    42   41   49 1   
    43   42   43 1   
    44   42   45 1   
    45   42   50 1   
    46   43   44 2   
    47   43   53 1   
    48   45   46 1   
    49   45   51 1   
    50   45   52 1   
    51   46   47 1   
    52   46   48 1   
    53   53   54 1   
    54   53   57 1   
    55   54   55 1   
    56   54   58 1   
    57   54   59 1   
    58   55   56 2   
    59   55   60 1   
    60   60   61 1   
    61   60   68 1   
    62   61   62 1   
    63   61   64 1   
    64   61   69 1   
    65   62   63 2   
    66   62   74 1   
    67   64   65 1   
    68   64   70 1   
    69   64   71 1   
    70   65   66 1   
    71   65   67 2   
    72   66   72 1   
    73   66   73 1   
    74   74   75 1   
    75   74   78 1   
    76   75   76 1   
    77   75   79 1   
    78   75   80 1   
    79   76   77 2   
    80   76   81 1   
    81   81   82 1   
    82   81   93 1   
    83   82   83 1   
    84   82   85 1   
    85   82   94 1   
    86   83   84 2   
    87   83  102 1   
    88   85   86 1   
    89   85   95 1   
    90   85   96 1   
    91   86   87 ar  
    92   86   88 ar  
    93   87   89 ar  
    94   87   97 1   
    95   88   90 ar  
    96   88   98 1   
    97   89   91 ar  
    98   89   99 1   
    99   90   91 ar  
   100   90  100 1   
   101   91   92 1   
   102   92  101 1   
   103  102  103 1   
   104  102  110 1   
   105  103  104 1   
   106  103  106 1   
   107  103  111 1   
   108  104  105 2   
   109  104  121 1   
   110  106  107 1   
   111  106  108 1   
   112  106  112 1   
   113  107  109 1   
   114  107  113 1   
   115  107  114 1   
   116  108  115 1   
   117  108  116 1   
   118  108  117 1   
   119  109  118 1   
   120  109  119 1   
   121  109  120 1   
   122  121  122 1   
   123  121  127 1   
   124  122  123 1   
   125  122  125 1   
   126  122  128 1   
   127  123  124 2   
   128  123  132 1   
   129  125  126 1   
   130  125  129 1   
   131  125  130 1   
   132  126  131 1   
   133  132  133 1   
   134  132  137 1   
   135  133  134 1   
   136  133  136 1   
   137  133  138 1   
   138  134  135 2   
   139  134  142 1   
   140  136  139 1   
   141  136  140 1   
   142  136  141 1   
   143  142  143 1   
   144  142  147 1   
   145  143  144 1   
   146  143  146 1   
   147  143  148 1   
   148  144  145 2   
   149  144  152 1   
   150  146  149 1   
   151  146  150 1   
   152  146  151 1   
   153  152  153 1   
   154  152  161 1   
   155  153  154 1   
   156  153  156 1   
   157  153  162 1   
   158  154  155 2   
   159  154  167 1   
   160  156  157 1   
   161  156  163 1   
   162  156  164 1   
   163  157  158 1   
   164  157  165 1   
   165  157  166 1   
   166  158  159 1   
   167  158  160 1   
   168  167  168 1   
   169  167  172 1   
   170  168  169 1   
   171  168  170 1   
   172  168  171 1   
   173  174  175 1   
   174  174  176 1   
   175  177  178 1   
   176  177  179 1   
   177  180  181 1   
   178  180  182 1   
   179  183  184 1   
   180  183  185 1   
   181  186  187 1   
   182  186  188 1   
@<TRIPOS>SUBSTRUCTURE
     1 MOL         1 TEMP              0 ****  ****    0 ROOT
