@<TRIPOS>MOLECULE
MOL
  188   182     1     0     0
SMALL
resp


@<TRIPOS>ATOM
      1 C1          3.4810    0.7000    3.1910 c3        1 MOL     -0.505482
      2 C2          4.2670    0.9550    1.8500 c         1 MOL      0.714423
      3 O1          3.8990    0.7280    0.7280 o         1 MOL     -0.466358
      4 H1          3.9820   -0.0830    3.7620 hc        1 MOL      0.138858
      5 H2          3.4560    1.6180    3.7780 hc        1 MOL      0.138858
      6 H3          2.4630    0.3870    2.9620 hc        1 MOL      0.138858
      7 N1          5.5110    1.5000    2.0230 n         1 MOL     -0.738093
      8 C3          6.4160    1.7270    0.9060 c3        1 MOL      0.194532
      9 C4          6.9450    0.4830    0.0620 c         1 MOL      0.490769
     10 O2          6.8400    0.4290   -1.1230 o         1 MOL     -0.465271
     11 C5          6.0140    2.8780   -0.0720 c3        1 MOL     -0.268338
     12 C6          5.7260    4.2850    0.6110 c         1 MOL      0.691833
     13 O3          5.6240    4.3790    1.8530 o         1 MOL     -0.641488
     14 O4          5.6930    5.3740   -0.0550 o         1 MOL     -0.641488
     15 H4          5.7280    1.9570    2.9000 hn        1 MOL      0.351673
     16 H5          7.3390    2.0920    1.3600 h1        1 MOL      0.035297
     17 H6          5.0850    2.5870   -0.5700 hc        1 MOL      0.079968
     18 H7          6.7450    2.9950   -0.8650 hc        1 MOL      0.079968
     19 N2          7.4780   -0.5010    0.8000 n         1 MOL     -0.467983
     20 C7          7.9050   -1.8410    0.3130 c3        1 MOL     -0.055054
     21 C8          6.6880   -2.7040   -0.1620 c         1 MOL      0.415362
     22 O5          6.8500   -3.8030   -0.7710 o         1 MOL     -0.533508
     23 C9          8.7390   -2.5020    1.4420 c3        1 MOL      0.006235
     24 C10         9.9480   -1.7620    2.0780 c3        1 MOL      0.006439
     25 C11        10.2930   -2.3780    3.4810 c3        1 MOL      0.010659
     26 C12        11.6310   -1.7270    3.9080 c3        1 MOL      0.014496
     27 N3         12.2230   -2.4140    5.0550 n4        1 MOL     -0.198259
     28 H8          7.4420   -0.3300    1.8000 hn        1 MOL      0.279993
     29 H9          8.3620   -1.7700   -0.6750 h1        1 MOL      0.158522
     30 H10         9.0150   -3.4890    1.0600 hc        1 MOL      0.025986
     31 H11         8.0530   -2.7160    2.2680 hc        1 MOL      0.025986
     32 H12         9.6750   -0.7060    2.1920 hc        1 MOL      0.012364
     33 H13        10.7750   -1.8320    1.3730 hc        1 MOL      0.012364
     34 H14        10.2900   -3.4630    3.3790 hc        1 MOL      0.020940
     35 H15         9.5620   -2.1170    4.2490 hc        1 MOL      0.020940
     36 H16        11.5670   -0.6500    4.0500 hx        1 MOL      0.078289
     37 H17        12.2900   -1.9910    3.0760 hx        1 MOL      0.078289
     38 H18        12.3180   -3.4010    4.8740 hn        1 MOL      0.237489
     39 H19        13.1500   -2.0650    5.2500 hn        1 MOL      0.237489
     40 H20        11.7100   -2.2720    5.9140 hn        1 MOL      0.237489
     41 N4          5.4480   -2.2820    0.0810 n         1 MOL     -0.160865
     42 C13         4.2810   -3.0080   -0.3520 c3        1 MOL     -0.008877
     43 C14         4.2230   -3.1930   -1.8700 c         1 MOL      0.390347
     44 O6          4.7520   -2.4950   -2.7260 o         1 MOL     -0.420571
     45 C15         3.1240   -2.2080    0.1430 c3        1 MOL     -0.237371
     46 C16         1.7960   -3.0300   -0.0020 c         1 MOL      0.850535
     47 O7          1.0600   -2.9890   -1.0140 o         1 MOL     -0.776005
     48 O8          1.4150   -3.5330    1.0650 o         1 MOL     -0.776005
     49 H21         5.2990   -1.4280    0.5910 hn        1 MOL      0.143814
     50 H22         4.2580   -3.9720    0.1490 h1        1 MOL      0.039377
     51 H23         3.1400   -1.2800   -0.4250 hc        1 MOL      0.085307
     52 H24         3.2870   -2.0450    1.2100 hc        1 MOL      0.085307
     53 N5          3.3890   -4.1630   -2.2410 n         1 MOL     -0.121660
     54 C17         2.9470   -4.5240   -3.5200 c3        1 MOL     -0.179909
     55 C18         2.3390   -3.3830   -4.3450 c         1 MOL      0.374229
     56 O9          2.6350   -3.3130   -5.5600 o         1 MOL     -0.513592
     57 H25         3.3010   -4.9590   -1.6290 hn        1 MOL      0.196924
     58 H26         2.2460   -5.3560   -3.4380 h1        1 MOL      0.089495
     59 H27         3.8650   -4.8350   -4.0170 h1        1 MOL      0.089495
     60 N6          1.5410   -2.5030   -3.7320 n         1 MOL      0.017164
     61 C19         0.9730   -1.2580   -4.3050 c3        1 MOL     -0.226082
     62 C20         1.7220    0.0420   -3.9960 c         1 MOL      0.600379
     63 O10         1.7740    0.9690   -4.7990 o         1 MOL     -0.528144
     64 C21        -0.5380   -1.2310   -3.8940 c3        1 MOL     -0.154893
     65 C22        -0.9230   -1.3260   -2.3990 c         1 MOL      0.331459
     66 N7         -0.8010   -0.2200   -1.6950 n         1 MOL     -0.272813
     67 O11        -1.4290   -2.3510   -1.9320 o         1 MOL     -0.519339
     68 H28         1.3570   -2.7350   -2.7590 hn        1 MOL     -0.010060
     69 H29         0.9790   -1.4200   -5.3920 h1        1 MOL      0.131134
     70 H30        -0.9610   -2.1120   -4.3810 hc        1 MOL      0.090442
     71 H31        -1.0500   -0.3730   -4.3280 hc        1 MOL      0.090442
     72 H32        -0.6740    0.6620   -2.1620 hn        1 MOL      0.203025
     73 H33        -0.7670   -0.2110   -0.6820 hn        1 MOL      0.203025
     74 N8          2.4060    0.0750   -2.8390 n         1 MOL     -0.282731
     75 C23         3.4270    1.1490   -2.5920 c3        1 MOL     -0.124168
     76 C24         2.8600    2.5410   -2.2570 c         1 MOL      0.459185
     77 O12         2.8810    3.4680   -3.0220 o         1 MOL     -0.493929
     78 H34         2.3390   -0.7230   -2.2310 hn        1 MOL      0.242529
     79 H35         4.1930    1.2630   -3.3560 h1        1 MOL      0.110026
     80 H36         4.0040    0.9110   -1.7040 h1        1 MOL      0.110026
     81 N9          2.0790    2.5620   -1.1550 n         1 MOL     -0.300028
     82 C25         1.2520    3.6580   -0.6820 c3        1 MOL      0.030654
     83 C26         0.0540    3.1190    0.1090 c         1 MOL      0.583704
     84 O13         0.0680    2.0040    0.6810 o         1 MOL     -0.517726
     85 C27         2.1810    4.6250    0.1300 c3        1 MOL     -0.121963
     86 C28         1.5160    5.8970    0.5560 ca        1 MOL     -0.014451
     87 C29         1.1530    6.9740   -0.3360 ca        1 MOL     -0.072826
     88 C30         1.1080    5.9380    1.8980 ca        1 MOL     -0.072826
     89 C31         0.6550    8.1520    0.1610 ca        1 MOL     -0.292677
     90 C32         0.5190    7.1380    2.4840 ca        1 MOL     -0.292677
     91 C33         0.2630    8.1670    1.5320 ca        1 MOL      0.343462
     92 O14        -0.2430    9.2980    1.9920 oh        1 MOL     -0.466340
     93 H37         2.0130    1.7460   -0.5730 hn        1 MOL      0.125793
     94 H38         0.8570    4.1610   -1.5700 h1        1 MOL      0.053583
     95 H39         3.0130    4.8690   -0.5360 hc        1 MOL      0.119174
     96 H40         2.5370    3.9920    0.9470 hc        1 MOL      0.119174
     97 H41         1.2730    6.8690   -1.4050 ha        1 MOL      0.113554
     98 H42         1.3820    5.1030    2.5330 ha        1 MOL      0.113554
     99 H43         0.4760    9.0390   -0.4290 ha        1 MOL      0.162817
    100 H44         0.2410    7.1480    3.5260 ha        1 MOL      0.162817
    101 H45        -0.1580    9.2270    2.9480 ho        1 MOL      0.339775
    102 N10        -0.9640    3.9370    0.1590 n         1 MOL     -0.592931
    103 C34        -2.2690    3.6390    0.8940 c3        1 MOL      0.108546
    104 C35        -3.2470    2.7380    0.0240 c         1 MOL      0.547350
    105 O15        -4.0740    1.9770    0.5810 o         1 MOL     -0.576295
    106 C36        -2.8780    4.9610    1.3430 c3        1 MOL      0.384922
    107 C37        -3.8240    4.7610    2.4840 c3        1 MOL      0.116443
    108 C38        -3.5450    5.8040    0.2410 c3        1 MOL     -0.406051
    109 C39        -3.3700    3.8940    3.6610 c3        1 MOL     -0.342780
    110 H46        -0.9190    4.6640   -0.5500 hn        1 MOL      0.263411
    111 H47        -1.9990    3.0630    1.7860 h1        1 MOL      0.052797
    112 H48        -2.1280    5.5600    1.8610 hc        1 MOL     -0.122040
    113 H49        -4.7910    4.3910    2.1110 hc        1 MOL     -0.024310
    114 H50        -4.1640    5.7720    2.7190 hc        1 MOL     -0.024310
    115 H51        -2.7760    6.2870   -0.3560 hc        1 MOL      0.082527
    116 H52        -4.1560    5.1540   -0.3880 hc        1 MOL      0.082527
    117 H53        -4.0980    6.5800    0.7710 hc        1 MOL      0.082527
    118 H54        -2.3860    4.2890    3.9160 hc        1 MOL      0.086344
    119 H55        -4.0470    3.9390    4.5150 hc        1 MOL      0.086344
    120 H56        -3.3990    2.8680    3.3110 hc        1 MOL      0.086344
    121 N11        -3.0940    2.7690   -1.2900 n         1 MOL     -0.453372
    122 C40        -3.6650    1.8460   -2.2500 c3        1 MOL     -0.034873
    123 C41        -5.2310    1.7270   -2.3110 c         1 MOL      0.373860
    124 O16        -5.7250    0.8690   -2.9610 o         1 MOL     -0.484647
    125 C42        -3.0790    2.1410   -3.6490 c3        1 MOL      0.163660
    126 O17        -1.6810    1.8120   -3.6020 oh        1 MOL     -0.587387
    127 H57        -2.4420    3.4250   -1.6920 hn        1 MOL      0.298379
    128 H58        -3.3300    0.8490   -1.9620 h1        1 MOL      0.134266
    129 H59        -3.2050    3.1890   -3.9150 h1        1 MOL      0.049139
    130 H60        -3.5860    1.5440   -4.4000 h1        1 MOL      0.049139
    131 H61        -1.2270    2.1750   -4.3740 ho        1 MOL      0.416378
    132 N12        -5.9180    2.5530   -1.5220 n         1 MOL     -0.281609
    133 C43        -7.3470    2.6750   -1.3480 c3        1 MOL      0.081096
    134 C44        -8.1130    1.3980   -0.8970 c         1 MOL      0.494775
    135 O18        -9.3620    1.3700   -0.9610 o         1 MOL     -0.513061
    136 C45        -7.9210    3.3690   -2.6400 c3        1 MOL     -0.177040
    137 H62        -5.3620    3.2080   -0.9700 hn        1 MOL      0.223699
    138 H63        -7.5560    3.4550   -0.6150 h1        1 MOL      0.074796
    139 H64        -7.3840    4.3020   -2.7990 hc        1 MOL      0.064580
    140 H65        -7.8940    2.7760   -3.5560 hc        1 MOL      0.064580
    141 H66        -8.9830    3.6190   -2.5740 hc        1 MOL      0.064580
    142 N13        -7.3560    0.3160   -0.4570 n         1 MOL     -0.656407
    143 C46        -7.9580   -0.9910   -0.0520 c3        1 MOL      0.672518
    144 C47        -7.3580   -1.6630    1.1240 c         1 MOL      0.110335
    145 O19        -6.2390   -1.3510    1.5070 o         1 MOL     -0.406222
    146 C48        -7.8170   -1.9520   -1.2090 c3        1 MOL     -0.270561
    147 H67        -6.3700    0.4730   -0.5530 hn        1 MOL      0.315294
    148 H68        -9.0360   -0.8650    0.0780 h1        1 MOL     -0.064960
    149 H69        -6.7800   -2.2930   -1.2180 hc        1 MOL      0.061454
    150 H70        -8.4540   -2.8300   -1.0990 hc        1 MOL      0.061454
    151 H71        -8.1770   -1.5070   -2.1450 hc        1 MOL      0.061454
    152 N14        -7.9940   -2.7600    1.6610 n         1 MOL     -0.336894
    153 C49        -7.6680   -3.6210    2.7910 c3        1 MOL     -0.014485
    154 C50        -7.1760   -2.9220    4.0540 c         1 MOL      0.346478
    155 O20        -6.4230   -3.4620    4.8980 o         1 MOL     -0.474566
    156 C51        -6.6000   -4.7260    2.5250 c3        1 MOL      0.294499
    157 C52        -5.2870   -4.2210    1.9660 c3        1 MOL      0.033999
    158 C53        -4.0820   -5.1980    2.1620 c         1 MOL      0.608200
    159 O21        -4.3240   -6.2970    2.7350 o         1 MOL     -0.698541
    160 O22        -2.9300   -4.8190    1.8950 o         1 MOL     -0.698541
    161 H72        -8.8240   -3.0300    1.1480 hn        1 MOL      0.256520
    162 H73        -8.5530   -4.1560    3.1210 h1        1 MOL      0.048428
    163 H74        -6.9790   -5.2850    1.6670 hc        1 MOL     -0.092602
    164 H75        -6.5130   -5.4380    3.3360 hc        1 MOL     -0.092602
    165 H76        -4.9690   -3.3560    2.5460 hc        1 MOL     -0.027789
    166 H77        -5.3430   -3.9590    0.9070 hc        1 MOL     -0.027789
    167 N15        -7.7530   -1.7850    4.3250 n         1 MOL     -0.133492
    168 C54        -7.4460   -1.0510    5.5470 c3        1 MOL     -0.188628
    169 H78        -7.1590   -1.7530    6.3300 h1        1 MOL      0.092645
    170 H79        -6.6230   -0.3610    5.3610 h1        1 MOL      0.092645
    171 H80        -8.3250   -0.4910    5.8660 h1        1 MOL      0.092645
    172 H81        -8.4910   -1.5490    3.6850 hn        1 MOL      0.180136
    173 Ca1        -1.1850   -3.9590    0.0720 Ca        1 MOL      1.777453
    174 O23        -0.3210   -6.2500    1.1030 oh        1 MOL     -0.850207
    175 H82         0.4250   -6.2500    1.7010 ho        1 MOL      0.422041
    176 H83        -0.6310   -7.1530    1.0950 ho        1 MOL      0.422041
    177 O24        -1.5240   -1.7620    1.9170 oh        1 MOL     -0.850207
    178 H84        -2.2630   -1.2490    2.2490 ho        1 MOL      0.422041
    179 H85        -0.8280   -1.6020    2.5490 ho        1 MOL      0.422041
    180 O25        -3.1590   -5.3180   -1.1820 oh        1 MOL     -0.850207
    181 H86        -3.4700   -6.1820   -0.9130 ho        1 MOL      0.422041
    182 H87        -3.8810   -4.9440   -1.6900 ho        1 MOL      0.422041
    183 O26        -3.6580   -2.4070   -0.2500 oh        1 MOL     -0.850207
    184 H88        -3.7210   -2.1190   -1.1620 ho        1 MOL      0.422041
    185 H89        -4.0880   -1.7050    0.2510 ho        1 MOL      0.422041
    186 O27        -0.2350   -5.1900   -2.2670 oh        1 MOL     -0.850207
    187 H90         0.5520   -5.6420   -2.5730 ho        1 MOL      0.422041
    188 H91        -0.7400   -5.0230   -3.0630 ho        1 MOL      0.422041
@<TRIPOS>BOND
     1    1    2 1   
     2    1    4 1   
     3    1    5 1   
     4    1    6 1   
     5    2    3 2   
     6    2    7 1   
     7    7    8 1   
     8    7   15 1   
     9    8    9 1   
    10    8   11 1   
    11    8   16 1   
    12    9   10 2   
    13    9   19 1   
    14   11   12 1   
    15   11   17 1   
    16   11   18 1   
    17   12   13 1   
    18   12   14 1   
    19   19   20 1   
    20   19   28 1   
    21   20   21 1   
    22   20   23 1   
    23   20   29 1   
    24   21   22 2   
    25   21   41 1   
    26   23   24 1   
    27   23   30 1   
    28   23   31 1   
    29   24   25 1   
    30   24   32 1   
    31   24   33 1   
    32   25   26 1   
    33   25   34 1   
    34   25   35 1   
    35   26   27 1   
    36   26   36 1   
    37   26   37 1   
    38   27   38 1   
    39   27   39 1   
    40   27   40 1   
    41   41   42 1   
    42   41   49 1   
    43   42   43 1   
    44   42   45 1   
    45   42   50 1   
    46   43   44 2   
    47   43   53 1   
    48   45   46 1   
    49   45   51 1   
    50   45   52 1   
    51   46   47 1   
    52   46   48 1   
    53   53   54 1   
    54   53   57 1   
    55   54   55 1   
    56   54   58 1   
    57   54   59 1   
    58   55   56 2   
    59   55   60 1   
    60   60   61 1   
    61   60   68 1   
    62   61   62 1   
    63   61   64 1   
    64   61   69 1   
    65   62   63 2   
    66   62   74 1   
    67   64   65 1   
    68   64   70 1   
    69   64   71 1   
    70   65   66 1   
    71   65   67 2   
    72   66   72 1   
    73   66   73 1   
    74   74   75 1   
    75   74   78 1   
    76   75   76 1   
    77   75   79 1   
    78   75   80 1   
    79   76   77 2   
    80   76   81 1   
    81   81   82 1   
    82   81   93 1   
    83   82   83 1   
    84   82   85 1   
    85   82   94 1   
    86   83   84 2   
    87   83  102 1   
    88   85   86 1   
    89   85   95 1   
    90   85   96 1   
    91   86   87 ar  
    92   86   88 ar  
    93   87   89 ar  
    94   87   97 1   
    95   88   90 ar  
    96   88   98 1   
    97   89   91 ar  
    98   89   99 1   
    99   90   91 ar  
   100   90  100 1   
   101   91   92 1   
   102   92  101 1   
   103  102  103 1   
   104  102  110 1   
   105  103  104 1   
   106  103  106 1   
   107  103  111 1   
   108  104  105 2   
   109  104  121 1   
   110  106  107 1   
   111  106  108 1   
   112  106  112 1   
   113  107  109 1   
   114  107  113 1   
   115  107  114 1   
   116  108  115 1   
   117  108  116 1   
   118  108  117 1   
   119  109  118 1   
   120  109  119 1   
   121  109  120 1   
   122  121  122 1   
   123  121  127 1   
   124  122  123 1   
   125  122  125 1   
   126  122  128 1   
   127  123  124 2   
   128  123  132 1   
   129  125  126 1   
   130  125  129 1   
   131  125  130 1   
   132  126  131 1   
   133  132  133 1   
   134  132  137 1   
   135  133  134 1   
   136  133  136 1   
   137  133  138 1   
   138  134  135 2   
   139  134  142 1   
   140  136  139 1   
   141  136  140 1   
   142  136  141 1   
   143  142  143 1   
   144  142  147 1   
   145  143  144 1   
   146  143  146 1   
   147  143  148 1   
   148  144  145 2   
   149  144  152 1   
   150  146  149 1   
   151  146  150 1   
   152  146  151 1   
   153  152  153 1   
   154  152  161 1   
   155  153  154 1   
   156  153  156 1   
   157  153  162 1   
   158  154  155 2   
   159  154  167 1   
   160  156  157 1   
   161  156  163 1   
   162  156  164 1   
   163  157  158 1   
   164  157  165 1   
   165  157  166 1   
   166  158  159 1   
   167  158  160 1   
   168  167  168 1   
   169  167  172 1   
   170  168  169 1   
   171  168  170 1   
   172  168  171 1   
   173  174  175 1   
   174  174  176 1   
   175  177  178 1   
   176  177  179 1   
   177  180  181 1   
   178  180  182 1   
   179  183  184 1   
   180  183  185 1   
   181  186  187 1   
   182  186  188 1   
@<TRIPOS>SUBSTRUCTURE
     1 MOL         1 TEMP              0 ****  ****    0 ROOT
