@<TRIPOS>MOLECULE
MOL
  192   187     1     0     0
SMALL
resp


@<TRIPOS>ATOM
      1 C1         -3.5110   -2.8370    2.7830 c3        1 MOL     -0.212479
      2 C2         -2.7120   -3.0650    1.4900 c         1 MOL      0.532472
      3 O1         -2.0790   -2.1150    1.0100 o         1 MOL     -0.444568
      4 H1         -3.0580   -2.0240    3.3510 hc        1 MOL      0.041784
      5 H2         -4.5400   -2.5760    2.5340 hc        1 MOL      0.041784
      6 H3         -3.5020   -3.7480    3.3820 hc        1 MOL      0.041784
      7 N1         -2.6560   -4.2650    0.9410 n         1 MOL     -0.559487
      8 C3         -1.8350   -4.8470   -0.1460 c3        1 MOL     -0.007354
      9 C4         -0.3130   -4.7060    0.1370 c         1 MOL      0.804344
     10 O2          0.4430   -4.1370   -0.6860 o         1 MOL     -0.562028
     11 C5         -2.3560   -4.3060   -1.4470 c3        1 MOL     -0.386810
     12 C6         -3.8940   -4.4460   -1.5090 c         1 MOL      0.811401
     13 O3         -4.4430   -5.5850   -1.6570 o         1 MOL     -0.759083
     14 O4         -4.6250   -3.3990   -1.5080 o         1 MOL     -0.759083
     15 H4         -3.2920   -4.9030    1.3930 hn        1 MOL      0.260075
     16 H5         -2.0400   -5.9040   -0.0530 h1        1 MOL      0.078676
     17 H6         -1.8470   -4.7040   -2.3220 hc        1 MOL      0.138192
     18 H7         -2.1280   -3.2390   -1.4960 hc        1 MOL      0.138192
     19 N2          0.1190   -5.0400    1.3640 n         1 MOL     -0.770577
     20 C7          1.5610   -4.7890    1.6930 c3        1 MOL     -0.025600
     21 C8          2.5770   -5.6730    0.9870 c         1 MOL      0.426684
     22 O5          2.3310   -6.8140    0.6290 o         1 MOL     -0.533979
     23 C9          1.8810   -4.8300    3.2520 c3        1 MOL      0.233524
     24 C10         1.6850   -6.2770    3.8150 c3        1 MOL      0.068367
     25 C11         1.0180   -3.8000    3.9610 c3        1 MOL     -0.013527
     26 C12         1.8280   -6.3520    5.3630 c3        1 MOL     -0.184419
     27 H8         -0.5800   -5.2330    2.0650 hn        1 MOL      0.410266
     28 H9          1.8150   -3.7670    1.4180 h1        1 MOL      0.157976
     29 H10         2.9280   -4.5480    3.3780 hc        1 MOL      0.002050
     30 H11         2.4340   -6.9090    3.3400 hc        1 MOL     -0.011453
     31 H12         0.6820   -6.6030    3.5730 hc        1 MOL     -0.011453
     32 H13         1.0730   -2.7730    3.6140 hc        1 MOL     -0.019882
     33 H14        -0.0080   -4.1570    3.8840 hc        1 MOL     -0.019882
     34 H15         1.3060   -3.8000    5.0190 hc        1 MOL     -0.019882
     35 H16         1.1160   -5.7270    5.8910 hc        1 MOL      0.030462
     36 H17         1.6720   -7.3990    5.6430 hc        1 MOL      0.030462
     37 H18         2.8280   -6.0140    5.6120 hc        1 MOL      0.030462
     38 N3          3.8430   -5.1670    0.7610 n         1 MOL     -0.419391
     39 C13         4.2670   -3.7290    0.7240 c3        1 MOL     -0.009739
     40 C14         4.1580   -3.0530   -0.6400 c         1 MOL      0.413508
     41 O6          4.2840   -1.8720   -0.6490 o         1 MOL     -0.520562
     42 C15         5.7240   -3.7240    1.1990 c3        1 MOL     -0.257696
     43 C16         6.8180   -4.4750    0.4650 c         1 MOL      0.680953
     44 O7          6.5170   -5.2670   -0.4240 o         1 MOL     -0.680217
     45 O8          7.9770   -4.0390    0.6680 o         1 MOL     -0.680217
     46 H19         4.4260   -5.8200    0.2500 hn        1 MOL      0.278757
     47 H20         3.7840   -3.0790    1.4460 h1        1 MOL      0.088874
     48 H21         5.7090   -4.1130    2.2210 hc        1 MOL      0.062582
     49 H22         6.0600   -2.6810    1.2430 hc        1 MOL      0.062582
     50 N4          4.0420   -3.7650   -1.7550 n         1 MOL     -0.115316
     51 C17         4.1850   -3.2220   -3.1010 c3        1 MOL     -0.318168
     52 C18         5.6020   -2.7630   -3.3800 c         1 MOL      0.620012
     53 O9          6.3560   -3.3700   -4.2050 o         1 MOL     -0.624807
     54 H23         3.8090   -4.7470   -1.6490 hn        1 MOL      0.253792
     55 H24         3.5800   -2.3140   -3.1270 h1        1 MOL      0.116753
     56 H25         3.8490   -3.9060   -3.8820 h1        1 MOL      0.116753
     57 N5          5.9560   -1.6470   -2.8440 n         1 MOL     -0.314308
     58 C19         7.2770   -0.9680   -3.0630 c3        1 MOL      0.096249
     59 C20         7.8550   -0.5210   -1.7100 c         1 MOL      0.391657
     60 O10         8.9440    0.0520   -1.6920 o         1 MOL     -0.569604
     61 C21         7.0820    0.2670   -4.0260 c3        1 MOL     -0.399133
     62 C22         6.0020    1.2970   -3.5720 c         1 MOL      0.730022
     63 O11         5.4270    1.2070   -2.4650 o         1 MOL     -0.682179
     64 O12         5.7080    2.2360   -4.3830 o         1 MOL     -0.682179
     65 H26         5.3300   -1.0330   -2.3290 hn        1 MOL      0.277137
     66 H27         7.9580   -1.7510   -3.3840 h1        1 MOL      0.095733
     67 H28         6.8370   -0.1100   -5.0180 hc        1 MOL      0.088833
     68 H29         8.0340    0.7870   -4.0600 hc        1 MOL      0.088833
     69 N6          7.2580   -0.6730   -0.5550 n         1 MOL     -0.050340
     70 C23         7.6290   -0.0720    0.6970 c3        1 MOL     -0.210384
     71 C24         7.4720    1.4410    0.9110 c         1 MOL      0.514866
     72 O13         7.8840    1.8620    1.9730 o         1 MOL     -0.554837
     73 H30         6.4250   -1.2500   -0.5560 hn        1 MOL      0.166059
     74 H31         8.6490   -0.3600    0.9620 h1        1 MOL      0.106513
     75 H32         7.0390   -0.5680    1.4640 h1        1 MOL      0.106513
     76 N7          6.8710    2.2110   -0.0410 n         1 MOL     -0.225672
     77 C25         6.4730    3.6450   -0.0820 c3        1 MOL      0.259448
     78 C26         5.7890    4.1910    1.1390 c         1 MOL      0.493465
     79 O14         6.0490    5.3330    1.5530 o         1 MOL     -0.544339
     80 C27         7.5170    4.5260   -0.6860 c3        1 MOL      0.036875
     81 C28         7.9730    4.0500   -2.1120 c3        1 MOL     -0.024291
     82 C29         8.9930    4.9160   -2.8330 c         1 MOL      0.620372
     83 N8          9.9480    4.3260   -3.5610 n         1 MOL     -0.790290
     84 O15         9.1670    6.1290   -2.7790 o         1 MOL     -0.589703
     85 H33         6.5440    1.6780   -0.8270 hn        1 MOL      0.087554
     86 H34         5.6560    3.7560   -0.7850 h1        1 MOL      0.040630
     87 H35         8.3820    4.4140   -0.0380 hc        1 MOL     -0.030503
     88 H36         7.1680    5.5590   -0.7580 hc        1 MOL     -0.030503
     89 H37         7.0880    3.9600   -2.7410 hc        1 MOL      0.024673
     90 H38         8.5400    3.1150   -2.0520 hc        1 MOL      0.024673
     91 H39        10.0340    3.3290   -3.6790 hn        1 MOL      0.344008
     92 H40        10.5650    4.9150   -4.1080 hn        1 MOL      0.344008
     93 N9          4.9180    3.4030    1.7660 n         1 MOL     -0.536293
     94 C30         4.1970    3.7250    3.0110 c3        1 MOL     -0.003650
     95 C31         2.6900    3.4460    2.9360 c         1 MOL      0.596881
     96 O16         1.9630    3.7300    3.8710 o         1 MOL     -0.582672
     97 C32         4.8770    3.1400    4.2600 c3        1 MOL      0.345306
     98 C33         4.7040    1.6690    4.2370 c3        1 MOL     -0.327077
     99 C34         6.2990    3.6630    4.5170 c3        1 MOL     -0.327077
    100 H41         4.6740    2.5330    1.3210 hn        1 MOL      0.276003
    101 H42         4.2610    4.7970    3.2070 h1        1 MOL      0.094021
    102 H43         4.3750    3.6230    5.0980 hc        1 MOL     -0.069257
    103 H44         5.1550    1.2020    5.1160 hc        1 MOL      0.076026
    104 H45         3.6870    1.3260    4.4040 hc        1 MOL      0.076026
    105 H46         5.0730    1.2210    3.3200 hc        1 MOL      0.076026
    106 H47         6.2020    4.7430    4.5740 hc        1 MOL      0.076026
    107 H48         6.7130    3.2860    5.4560 hc        1 MOL      0.076026
    108 H49         6.9340    3.3680    3.6860 hc        1 MOL      0.076026
    109 N10         2.2150    2.8160    1.8340 n         1 MOL     -0.614207
    110 C35         0.8220    2.4970    1.7400 c3        1 MOL      0.387180
    111 C36         0.0450    3.3410    0.7510 c         1 MOL      0.559612
    112 O17         0.6250    4.0470   -0.0540 o         1 MOL     -0.537207
    113 C37         0.7040    0.9820    1.5070 c3        1 MOL     -0.215111
    114 C38         1.4390    0.2350    2.6690 c         1 MOL      0.616362
    115 N11         0.9350    0.3110    3.8430 n         1 MOL     -0.782256
    116 O18         2.5300   -0.2250    2.5650 o         1 MOL     -0.535588
    117 H50         2.8500    2.4430    1.1460 hn        1 MOL      0.322406
    118 H51         0.3440    2.7120    2.6910 h1        1 MOL     -0.025345
    119 H52         1.2290    0.7220    0.5900 hc        1 MOL      0.075327
    120 H53        -0.3490    0.7110    1.5040 hc        1 MOL      0.075327
    121 H54        -0.0120    0.6470    3.9180 hn        1 MOL      0.361248
    122 H55         1.3960    0.0820    4.7200 hn        1 MOL      0.361248
    123 N12        -1.2730    3.2560    0.7340 n         1 MOL     -0.506692
    124 C39        -2.1190    4.0160   -0.2180 c3        1 MOL      0.066747
    125 C40        -3.5880    4.1290    0.1520 c         1 MOL      0.555298
    126 O19        -4.0140    3.5160    1.1380 o         1 MOL     -0.569887
    127 C41        -1.9550    3.4980   -1.7070 c3        1 MOL     -0.241961
    128 C42        -2.8220    2.2980   -2.1090 ca        1 MOL      0.024414
    129 C43        -2.7170    1.0580   -1.4170 ca        1 MOL     -0.103725
    130 C44        -3.7940    2.4160   -3.0790 ca        1 MOL     -0.103725
    131 C45        -3.4260   -0.0940   -1.7620 ca        1 MOL     -0.237644
    132 C46        -4.4970    1.2280   -3.4970 ca        1 MOL     -0.237644
    133 C47        -4.3070   -0.0530   -2.8390 ca        1 MOL      0.225830
    134 O20        -5.0630   -1.1740   -3.1930 oh        1 MOL     -0.530400
    135 H56        -1.7300    2.6980    1.4390 hn        1 MOL      0.281386
    136 H57        -1.6540    4.9920   -0.3640 h1        1 MOL      0.082508
    137 H58        -0.9260    3.1640   -1.7890 hc        1 MOL      0.117712
    138 H59        -2.1470    4.2630   -2.4530 hc        1 MOL      0.117712
    139 H60        -2.0730    0.9480   -0.5660 ha        1 MOL      0.106654
    140 H61        -3.9050    3.3580   -3.6100 ha        1 MOL      0.106654
    141 H62        -3.3180   -0.9500   -1.1100 ha        1 MOL      0.132541
    142 H63        -5.2990    1.3260   -4.2140 ha        1 MOL      0.132541
    143 H64        -4.8970   -1.8950   -2.5840 ho        1 MOL      0.496269
    144 N13        -4.4590    4.8490   -0.6000 n         1 MOL     -0.628229
    145 C48        -5.8450    5.0690   -0.3340 c3        1 MOL      0.386208
    146 C49        -6.6860    4.3910   -1.3940 c         1 MOL      0.440582
    147 O21        -6.8970    4.7940   -2.5370 o         1 MOL     -0.549127
    148 C50        -6.2240    6.5510   -0.2810 c3        1 MOL     -0.073972
    149 C51        -7.6620    6.9040    0.0810 c3        1 MOL     -0.132132
    150 C52        -7.9480    8.4290    0.1490 c         1 MOL      0.692274
    151 O22        -8.2970    9.0250   -0.8700 o         1 MOL     -0.678549
    152 O23        -7.9490    8.9940    1.3010 o         1 MOL     -0.678549
    153 H65        -4.0110    5.3720   -1.3380 hn        1 MOL      0.314656
    154 H66        -6.1110    4.7880    0.6910 h1        1 MOL      0.068860
    155 H67        -5.9570    7.0220   -1.2280 hc        1 MOL     -0.002154
    156 H68        -5.5880    6.8730    0.5460 hc        1 MOL     -0.002154
    157 H69        -7.8370    6.4640    1.0690 hc        1 MOL      0.016012
    158 H70        -8.3310    6.4420   -0.6420 hc        1 MOL      0.016012
    159 N14        -7.0590    3.1300   -1.2450 n         1 MOL     -0.439459
    160 C53        -6.8750    2.3180   -0.0900 c3        1 MOL      0.010182
    161 C54        -7.5300    2.6900    1.2040 c         1 MOL      0.407088
    162 O24        -8.7070    3.0490    1.1860 o         1 MOL     -0.536600
    163 C55        -7.2480    0.8740   -0.4790 c3        1 MOL      0.013283
    164 C56        -6.6350   -0.1550    0.4960 c3        1 MOL     -0.179471
    165 C57        -6.7820   -1.6420    0.0240 c         1 MOL      0.687282
    166 O25        -7.4730   -1.9560   -0.9660 o         1 MOL     -0.708332
    167 O26        -6.3060   -2.5760    0.7600 o         1 MOL     -0.708332
    168 H71        -7.5230    2.7740   -2.0710 hn        1 MOL      0.305008
    169 H72        -5.8090    2.3600    0.1400 h1        1 MOL      0.086393
    170 H73        -6.9050    0.7060   -1.5040 hc        1 MOL      0.032587
    171 H74        -8.3290    0.8520   -0.5260 hc        1 MOL      0.032587
    172 H75        -6.9200   -0.0740    1.5480 hc        1 MOL      0.047349
    173 H76        -5.5490   -0.0490    0.4410 hc        1 MOL      0.047349
    174 N15        -6.8140    2.6510    2.3670 n         1 MOL     -0.118591
    175 C58        -7.2140    3.1380    3.7360 c3        1 MOL     -0.418083
    176 H77        -6.3270    3.2250    4.3640 h1        1 MOL      0.145049
    177 H78        -7.6950    4.1130    3.6500 h1        1 MOL      0.145049
    178 H79        -7.9080    2.4280    4.1860 h1        1 MOL      0.145049
    179 H80        -5.8720    2.2980    2.2750 hn        1 MOL      0.195859
    180 Ca1        -6.9120   -4.5650   -0.7950 Ca        1 MOL      1.665091
    181 O27        -7.1580   -4.8910   -3.3530 oh        1 MOL     -0.772350
    182 H81        -7.2760   -5.7470   -3.7580 ho        1 MOL      0.358960
    183 H82        -7.0090   -4.2860   -4.0780 ho        1 MOL      0.358960
    184 O28        -7.6030   -7.2280   -1.2200 oh        1 MOL     -0.772350
    185 H83        -7.8290   -7.4030   -2.1360 ho        1 MOL      0.358960
    186 H84        -7.9390   -7.9850   -0.7370 ho        1 MOL      0.358960
    187 O29        -9.4790   -4.8650   -1.8860 oh        1 MOL     -0.772350
    188 H85       -10.2940   -4.4170   -1.6510 ho        1 MOL      0.358960
    189 H86        -9.7540   -5.7630   -2.0930 ho        1 MOL      0.358960
    190 O30        -8.6570   -4.9470    1.0850 oh        1 MOL     -0.772350
    191 H87        -8.7690   -5.8720    1.2910 ho        1 MOL      0.358960
    192 H88        -9.5570   -4.6220    0.9590 ho        1 MOL      0.358960
@<TRIPOS>BOND
     1    1    2 1   
     2    1    4 1   
     3    1    5 1   
     4    1    6 1   
     5    2    3 2   
     6    2    7 1   
     7    7    8 1   
     8    7   15 1   
     9    8    9 1   
    10    8   11 1   
    11    8   16 1   
    12    9   10 2   
    13    9   19 1   
    14   11   12 1   
    15   11   17 1   
    16   11   18 1   
    17   12   13 1   
    18   12   14 1   
    19   19   20 1   
    20   19   27 1   
    21   20   21 1   
    22   20   23 1   
    23   20   28 1   
    24   21   22 2   
    25   21   38 1   
    26   23   24 1   
    27   23   25 1   
    28   23   29 1   
    29   24   26 1   
    30   24   30 1   
    31   24   31 1   
    32   25   32 1   
    33   25   33 1   
    34   25   34 1   
    35   26   35 1   
    36   26   36 1   
    37   26   37 1   
    38   38   39 1   
    39   38   46 1   
    40   39   40 1   
    41   39   42 1   
    42   39   47 1   
    43   40   41 2   
    44   40   50 1   
    45   42   43 1   
    46   42   48 1   
    47   42   49 1   
    48   43   44 1   
    49   43   45 1   
    50   50   51 1   
    51   50   54 1   
    52   51   52 1   
    53   51   55 1   
    54   51   56 1   
    55   52   53 2   
    56   52   57 1   
    57   57   58 1   
    58   57   65 1   
    59   58   59 1   
    60   58   61 1   
    61   58   66 1   
    62   59   60 2   
    63   59   69 1   
    64   61   62 1   
    65   61   67 1   
    66   61   68 1   
    67   62   63 1   
    68   62   64 1   
    69   69   70 1   
    70   69   73 1   
    71   70   71 1   
    72   70   74 1   
    73   70   75 1   
    74   71   72 2   
    75   71   76 1   
    76   76   77 1   
    77   76   85 1   
    78   77   78 1   
    79   77   80 1   
    80   77   86 1   
    81   78   79 2   
    82   78   93 1   
    83   80   81 1   
    84   80   87 1   
    85   80   88 1   
    86   81   82 1   
    87   81   89 1   
    88   81   90 1   
    89   82   83 1   
    90   82   84 2   
    91   83   91 1   
    92   83   92 1   
    93   93   94 1   
    94   93  100 1   
    95   94   95 1   
    96   94   97 1   
    97   94  101 1   
    98   95   96 2   
    99   95  109 1   
   100   97   98 1   
   101   97   99 1   
   102   97  102 1   
   103   98  103 1   
   104   98  104 1   
   105   98  105 1   
   106   99  106 1   
   107   99  107 1   
   108   99  108 1   
   109  109  110 1   
   110  109  117 1   
   111  110  111 1   
   112  110  113 1   
   113  110  118 1   
   114  111  112 2   
   115  111  123 1   
   116  113  114 1   
   117  113  119 1   
   118  113  120 1   
   119  114  115 1   
   120  114  116 2   
   121  115  121 1   
   122  115  122 1   
   123  123  124 1   
   124  123  135 1   
   125  124  125 1   
   126  124  127 1   
   127  124  136 1   
   128  125  126 2   
   129  125  144 1   
   130  127  128 1   
   131  127  137 1   
   132  127  138 1   
   133  128  129 ar  
   134  128  130 ar  
   135  129  131 ar  
   136  129  139 1   
   137  130  132 ar  
   138  130  140 1   
   139  131  133 ar  
   140  131  141 1   
   141  132  133 ar  
   142  132  142 1   
   143  133  134 1   
   144  134  143 1   
   145  144  145 1   
   146  144  153 1   
   147  145  146 1   
   148  145  148 1   
   149  145  154 1   
   150  146  147 2   
   151  146  159 1   
   152  148  149 1   
   153  148  155 1   
   154  148  156 1   
   155  149  150 1   
   156  149  157 1   
   157  149  158 1   
   158  150  151 1   
   159  150  152 1   
   160  159  160 1   
   161  159  168 1   
   162  160  161 1   
   163  160  163 1   
   164  160  169 1   
   165  161  162 2   
   166  161  174 1   
   167  163  164 1   
   168  163  170 1   
   169  163  171 1   
   170  164  165 1   
   171  164  172 1   
   172  164  173 1   
   173  165  166 1   
   174  165  167 1   
   175  174  175 1   
   176  174  179 1   
   177  175  176 1   
   178  175  177 1   
   179  175  178 1   
   180  181  182 1   
   181  181  183 1   
   182  184  185 1   
   183  184  186 1   
   184  187  188 1   
   185  187  189 1   
   186  190  191 1   
   187  190  192 1   
@<TRIPOS>SUBSTRUCTURE
     1 MOL         1 TEMP              0 ****  ****    0 ROOT
