@<TRIPOS>MOLECULE
MOL
  189   185     1     0     0
SMALL
resp


@<TRIPOS>ATOM
      1 C1         -4.3960    3.5500    3.9040 c3        1 MOL     -0.278834
      2 C2         -5.1990    2.9120    2.7650 c         1 MOL      0.801573
      3 O1         -4.7730    2.9080    1.6060 o         1 MOL     -0.686105
      4 H1         -4.0720    2.7750    4.5990 hc        1 MOL      0.065701
      5 H2         -3.5230    4.0570    3.4930 hc        1 MOL      0.065701
      6 H3         -5.0210    4.2710    4.4310 hc        1 MOL      0.065701
      7 N1         -6.3870    2.3110    3.0620 n         1 MOL     -0.671015
      8 C3         -7.0820    1.2490    2.2510 c3        1 MOL      0.245592
      9 C4         -6.0620    0.2110    1.6270 c         1 MOL     -0.001911
     10 O2         -5.9430    0.1350    0.3620 o         1 MOL     -0.386341
     11 C5         -8.0560    1.9020    1.2570 c3        1 MOL     -0.083432
     12 C6         -7.6740    3.1740    0.5580 c         1 MOL      0.802935
     13 O3         -6.9110    3.0450   -0.3660 o         1 MOL     -0.768109
     14 O4         -8.2150    4.2500    0.9170 o         1 MOL     -0.768109
     15 H4         -6.5870    2.3680    4.0540 hn        1 MOL      0.292544
     16 H5         -7.6160    0.6350    2.9680 h1        1 MOL      0.068387
     17 H6         -8.9840    2.1070    1.8050 hc        1 MOL      0.007856
     18 H7         -8.3870    1.1360    0.5580 hc        1 MOL      0.007856
     19 N2         -5.5060   -0.5420    2.5750 n         1 MOL     -0.080107
     20 C7         -4.5370   -1.6390    2.4860 c3        1 MOL     -0.079574
     21 C8         -4.9580   -2.8100    1.5410 c         1 MOL      0.381311
     22 O5         -4.8540   -4.0070    1.8740 o         1 MOL     -0.559855
     23 C9         -3.1480   -1.0750    2.2340 c3        1 MOL      0.094078
     24 C10        -1.9140   -2.0470    2.2840 c3        1 MOL      0.033057
     25 C11        -2.9740   -0.1480    3.4060 c3        1 MOL     -0.292712
     26 C12        -1.9470   -3.1550    3.3890 c3        1 MOL     -0.475801
     27 H8         -5.7850   -0.2960    3.5100 hn        1 MOL      0.210845
     28 H9         -4.5440   -2.0400    3.4900 h1        1 MOL      0.106880
     29 H10        -3.0900   -0.4290    1.3590 hc        1 MOL      0.036017
     30 H11        -1.0590   -1.3710    2.3030 hc        1 MOL      0.050021
     31 H12        -1.8160   -2.6530    1.3760 hc        1 MOL      0.050021
     32 H13        -1.9540    0.2360    3.4280 hc        1 MOL      0.057074
     33 H14        -3.4970    0.7760    3.2000 hc        1 MOL      0.057074
     34 H15        -3.3140   -0.5870    4.3540 hc        1 MOL      0.057074
     35 H16        -2.1470   -2.7380    4.3750 hc        1 MOL      0.118948
     36 H17        -2.6800   -3.9300    3.1380 hc        1 MOL      0.118948
     37 H18        -0.9890   -3.6510    3.2610 hc        1 MOL      0.118948
     38 N3         -5.5930   -2.5670    0.3410 n         1 MOL      0.020912
     39 C13        -6.4950   -3.6250   -0.1880 c3        1 MOL      0.081549
     40 C14        -5.9300   -4.8330   -1.0300 c         1 MOL      0.617003
     41 O6         -6.6730   -5.8170   -1.0400 o         1 MOL     -0.610938
     42 C15        -7.6410   -2.9220   -0.9160 c3        1 MOL     -0.342213
     43 C16        -8.5080   -1.9910   -0.0050 c         1 MOL      0.705603
     44 O7         -8.5180   -2.0970    1.2340 o         1 MOL     -0.697912
     45 O8         -9.0720   -1.0770   -0.5970 o         1 MOL     -0.697912
     46 H19        -5.6880   -1.6180    0.0110 hn        1 MOL      0.003835
     47 H20        -6.9350   -4.1150    0.6840 h1        1 MOL      0.048196
     48 H21        -8.0890   -3.6340   -1.6030 hc        1 MOL      0.095988
     49 H22        -7.1440   -2.2590   -1.6130 hc        1 MOL      0.095988
     50 N4         -4.7890   -4.9540   -1.7100 n         1 MOL     -0.650732
     51 C17        -3.8820   -3.8540   -2.1320 c3        1 MOL      0.196107
     52 C18        -4.6150   -2.9340   -3.1750 c         1 MOL      0.489575
     53 O9         -5.7730   -3.1710   -3.5670 o         1 MOL     -0.546390
     54 H23        -4.7410   -5.8060   -2.2480 hn        1 MOL      0.319857
     55 H24        -2.9740   -4.2240   -2.6020 h1        1 MOL      0.033058
     56 H25        -3.5750   -3.3080   -1.2400 h1        1 MOL      0.033058
     57 N5         -3.9960   -1.8450   -3.6130 n         1 MOL     -0.638858
     58 C19        -2.6210   -1.4510   -3.1780 c3        1 MOL      0.367422
     59 C20        -2.5790   -0.8850   -1.7190 c         1 MOL     -0.127859
     60 O10        -3.5800   -0.5110   -1.1360 o         1 MOL     -0.153121
     61 C21        -2.1770   -0.4370   -4.2720 c3        1 MOL     -0.362804
     62 C22        -3.0580    0.8080   -4.2230 c         1 MOL      0.852976
     63 O11        -3.7620    1.0520   -5.2310 o         1 MOL     -0.728581
     64 O12        -3.0040    1.5400   -3.2570 o         1 MOL     -0.728581
     65 H26        -4.5700   -1.2010   -4.1320 hn        1 MOL      0.379497
     66 H27        -1.9590   -2.3210   -3.2080 h1        1 MOL      0.013156
     67 H28        -2.2320   -0.9410   -5.2400 hc        1 MOL      0.065996
     68 H29        -1.1250   -0.1700   -4.1290 hc        1 MOL      0.065996
     69 N6         -1.3890   -0.7190   -1.1010 n         1 MOL     -0.146432
     70 C23         0.0220   -0.9510   -1.5510 c3        1 MOL      0.225561
     71 C24         0.3930   -2.4320   -1.3920 c         1 MOL      0.333744
     72 O13        -0.3040   -3.3490   -1.8240 o         1 MOL     -0.460679
     73 H30        -1.5240   -0.1260   -0.2970 hn        1 MOL      0.057343
     74 H31         0.6270   -0.2830   -0.9430 h1        1 MOL      0.036490
     75 H32         0.1710   -0.6540   -2.5910 h1        1 MOL      0.036490
     76 N7          1.5630   -2.6640   -0.8410 n         1 MOL     -0.446198
     77 C25         2.2420   -3.9700   -0.9150 c3        1 MOL      0.034697
     78 C26         3.0910   -4.3050    0.2790 c         1 MOL      0.396958
     79 O14         3.7190   -5.4020    0.3230 o         1 MOL     -0.519981
     80 C27         3.0380   -4.1350   -2.2210 c3        1 MOL     -0.015993
     81 C28         4.4490   -3.4600   -2.2250 c3        1 MOL     -0.267619
     82 C29         4.4130   -1.9680   -2.0170 c         1 MOL      0.392755
     83 N8          4.2070   -1.1760   -3.0200 n         1 MOL     -0.639963
     84 O15         4.3880   -1.5520   -0.8900 o         1 MOL     -0.299745
     85 H33         2.0910   -1.8290   -0.6260 hn        1 MOL      0.257862
     86 H34         1.4700   -4.7310   -1.0370 h1        1 MOL      0.120230
     87 H35         2.3640   -3.7960   -3.0030 hc        1 MOL      0.060877
     88 H36         3.0840   -5.2020   -2.4200 hc        1 MOL      0.060877
     89 H37         4.9260   -3.6470   -3.1890 hc        1 MOL      0.095497
     90 H38         5.0940   -3.8950   -1.4650 hc        1 MOL      0.095497
     91 H39         4.3920   -1.4780   -3.9650 hn        1 MOL      0.359021
     92 H40         4.0660   -0.1910   -2.8480 hn        1 MOL      0.359021
     93 N9          3.0990   -3.4300    1.3060 n         1 MOL     -0.103122
     94 C30         3.7690   -3.7660    2.5990 c3        1 MOL     -0.222056
     95 C31         5.0450   -2.9200    2.7390 c         1 MOL      0.566929
     96 O16         5.7970   -3.0450    3.7000 o         1 MOL     -0.572206
     97 C32         2.7960   -3.6710    3.8130 c3        1 MOL      0.193801
     98 C33         1.8070   -4.8150    3.9450 c3        1 MOL     -0.227945
     99 C34         2.1710   -2.2770    3.9670 c3        1 MOL     -0.227945
    100 H41         2.5660   -2.5760    1.2320 hn        1 MOL      0.157191
    101 H42         4.1180   -4.8030    2.5400 h1        1 MOL      0.149414
    102 H43         3.3870   -3.8160    4.7210 hc        1 MOL      0.016871
    103 H44         1.3650   -4.8000    4.9400 hc        1 MOL      0.056592
    104 H45         1.0160   -4.6960    3.1980 hc        1 MOL      0.056592
    105 H46         2.2860   -5.7670    3.6920 hc        1 MOL      0.056592
    106 H47         2.9120   -1.4880    3.8600 hc        1 MOL      0.056592
    107 H48         1.3200   -2.1420    3.3030 hc        1 MOL      0.056592
    108 H49         1.9450   -2.0520    5.0050 hc        1 MOL      0.056592
    109 N10         5.3740   -2.0960    1.6720 n         1 MOL     -0.408026
    110 C35         6.6510   -1.4150    1.5630 c3        1 MOL      0.101667
    111 C36         6.7170    0.0190    1.1560 c         1 MOL      0.434275
    112 O17         7.6940    0.6780    1.6060 o         1 MOL     -0.549626
    113 C37         7.4660   -2.1460    0.5230 c3        1 MOL     -0.318470
    114 C38         7.5250   -3.6810    0.7320 c         1 MOL      0.659714
    115 N11         8.0340   -4.2120    1.8500 n         1 MOL     -0.848455
    116 O18         7.1480   -4.4360   -0.1500 o         1 MOL     -0.548001
    117 H50         4.7460   -2.1680    0.8740 hn        1 MOL      0.257682
    118 H51         7.2080   -1.4470    2.4980 h1        1 MOL      0.075017
    119 H52         8.4940   -1.7890    0.5240 hc        1 MOL      0.115951
    120 H53         7.1450   -1.9920   -0.5070 hc        1 MOL      0.115951
    121 H54         7.9650   -3.6640    2.6990 hn        1 MOL      0.389465
    122 H55         8.2620   -5.1920    1.7710 hn        1 MOL      0.389465
    123 N12         5.7680    0.5280    0.3820 n         1 MOL     -0.191042
    124 C39         5.7420    1.8980   -0.1030 c3        1 MOL     -0.028271
    125 C40         4.3700    2.5580   -0.1230 c         1 MOL      0.599961
    126 O19         3.3380    1.8380   -0.2960 o         1 MOL     -0.459979
    127 C41         6.3500    1.7700   -1.4950 c3        1 MOL      0.173612
    128 C42         7.7690    1.1970   -1.6070 ca        1 MOL     -0.036686
    129 C43         8.8410    1.7120   -0.8330 ca        1 MOL     -0.166337
    130 C44         8.0650    0.1450   -2.4960 ca        1 MOL     -0.166337
    131 C45        10.0860    1.2370   -0.9030 ca        1 MOL     -0.225453
    132 C46         9.3700   -0.4690   -2.5210 ca        1 MOL     -0.225453
    133 C47        10.3710    0.1410   -1.7220 ca        1 MOL      0.312764
    134 O20        11.5920   -0.3720   -1.7040 oh        1 MOL     -0.505570
    135 H56         5.0090   -0.1190    0.2650 hn        1 MOL      0.013875
    136 H57         6.4930    2.5100    0.4110 h1        1 MOL      0.051502
    137 H58         6.2390    2.7260   -2.0120 hc        1 MOL      0.003633
    138 H59         5.7680    1.0950   -2.1240 hc        1 MOL      0.003633
    139 H60         8.6110    2.5280   -0.1650 ha        1 MOL      0.133386
    140 H61         7.2910   -0.3620   -3.0550 ha        1 MOL      0.133386
    141 H62        10.8890    1.7160   -0.3640 ha        1 MOL      0.133267
    142 H63         9.4590   -1.4400   -2.9870 ha        1 MOL      0.133267
    143 H64        12.1400    0.1340   -1.1020 ho        1 MOL      0.369115
    144 N13         4.3880    3.9210   -0.0850 n         1 MOL     -0.743876
    145 C48         3.3540    4.8920   -0.3570 c3        1 MOL      0.264571
    146 C49         2.2710    4.9590    0.7480 c         1 MOL      0.287376
    147 O21         1.6750    6.0000    0.9490 o         1 MOL     -0.497664
    148 C50         2.7520    4.7480   -1.8110 c3        1 MOL      0.136140
    149 C51         3.7070    5.0530   -3.0430 c3        1 MOL     -0.355784
    150 C52         3.1250    4.9140   -4.4280 c         1 MOL      0.751751
    151 O22         2.6490    3.8270   -4.7630 o         1 MOL     -0.730074
    152 O23         3.3150    5.7470   -5.3380 o         1 MOL     -0.730074
    153 H65         5.2060    4.4550    0.1400 hn        1 MOL      0.361641
    154 H66         3.7310    5.9210   -0.2900 h1        1 MOL      0.019153
    155 H67         1.9320    5.4670   -1.9430 hc        1 MOL      0.017434
    156 H68         2.3720    3.7370   -1.8910 hc        1 MOL      0.017434
    157 H69         4.5690    4.4150   -2.9020 hc        1 MOL      0.029217
    158 H70         4.0630    6.0620   -2.8140 hc        1 MOL      0.029217
    159 N14         2.1400    3.8850    1.4980 n         1 MOL     -0.294337
    160 C53         1.0600    3.8200    2.4930 c3        1 MOL     -0.017093
    161 C54         1.4660    4.1520    3.9240 c         1 MOL      0.472037
    162 O24         0.6040    4.5680    4.7240 o         1 MOL     -0.526498
    163 C55         0.4810    2.3850    2.4270 c3        1 MOL     -0.249015
    164 C56        -0.0160    1.7890    1.0610 c3        1 MOL      0.513964
    165 C57        -1.2520    2.4680    0.5400 c         1 MOL      0.628126
    166 O25        -2.1480    1.7460    0.0750 o         1 MOL     -0.647648
    167 O26        -1.2460    3.6950    0.3630 o         1 MOL     -0.647648
    168 H71         2.6710    3.0790    1.2230 hn        1 MOL      0.218711
    169 H72         0.2750    4.5230    2.2220 h1        1 MOL      0.164261
    170 H73        -0.3920    2.3000    3.0750 hc        1 MOL      0.020465
    171 H74         1.2460    1.6930    2.7730 hc        1 MOL      0.020465
    172 H75        -0.2520    0.7190    1.1260 hc        1 MOL     -0.170043
    173 H76         0.6940    1.8860    0.2410 hc        1 MOL     -0.170043
    174 N15         2.7750    4.1790    4.2740 n         1 MOL     -0.189884
    175 C58         3.2710    4.6580    5.5410 c3        1 MOL     -0.277767
    176 H77         4.3400    4.4560    5.6120 h1        1 MOL      0.103528
    177 H78         3.0980    5.7310    5.6160 h1        1 MOL      0.103528
    178 H79         2.7500    4.1480    6.3510 h1        1 MOL      0.103528
    179 H80         3.4620    3.7780    3.6470 hn        1 MOL      0.205091
    180 Ca1        -4.5780    1.9120   -1.0470 Ca        1 MOL      1.743015
    181 O27        -6.1350    0.1640   -2.7090 oh        1 MOL     -0.827081
    182 H81        -6.5050    0.0320   -3.5760 ho        1 MOL      0.402709
    183 H82        -6.6880   -0.3480   -2.1290 ho        1 MOL      0.402709
    184 O28        -5.5860    3.3490   -3.1040 oh        1 MOL     -0.827081
    185 H83        -5.0530    4.1340   -3.0060 ho        1 MOL      0.402709
    186 H84        -6.2440    3.5930   -3.7600 ho        1 MOL      0.402709
    187 O29        -3.8320    4.5180   -0.6250 oh        1 MOL     -0.827081
    188 H85        -4.4430    4.9990   -0.0630 ho        1 MOL      0.402709
    189 H86        -3.0560    4.4090   -0.0880 ho        1 MOL      0.402709
@<TRIPOS>BOND
     1    1    2 1   
     2    1    4 1   
     3    1    5 1   
     4    1    6 1   
     5    2    3 2   
     6    2    7 1   
     7    7    8 1   
     8    7   15 1   
     9    8    9 1   
    10    8   11 1   
    11    8   16 1   
    12    9   10 2   
    13    9   19 1   
    14   11   12 1   
    15   11   17 1   
    16   11   18 1   
    17   12   13 1   
    18   12   14 1   
    19   19   20 1   
    20   19   27 1   
    21   20   21 1   
    22   20   23 1   
    23   20   28 1   
    24   21   22 2   
    25   21   38 1   
    26   23   24 1   
    27   23   25 1   
    28   23   29 1   
    29   24   26 1   
    30   24   30 1   
    31   24   31 1   
    32   25   32 1   
    33   25   33 1   
    34   25   34 1   
    35   26   35 1   
    36   26   36 1   
    37   26   37 1   
    38   38   39 1   
    39   38   46 1   
    40   39   40 1   
    41   39   42 1   
    42   39   47 1   
    43   40   41 2   
    44   40   50 1   
    45   42   43 1   
    46   42   48 1   
    47   42   49 1   
    48   43   44 1   
    49   43   45 1   
    50   50   51 1   
    51   50   54 1   
    52   51   52 1   
    53   51   55 1   
    54   51   56 1   
    55   52   53 2   
    56   52   57 1   
    57   57   58 1   
    58   57   65 1   
    59   58   59 1   
    60   58   61 1   
    61   58   66 1   
    62   59   60 2   
    63   59   69 1   
    64   61   62 1   
    65   61   67 1   
    66   61   68 1   
    67   62   63 1   
    68   62   64 1   
    69   69   70 1   
    70   69   73 1   
    71   70   71 1   
    72   70   74 1   
    73   70   75 1   
    74   71   72 2   
    75   71   76 1   
    76   76   77 1   
    77   76   85 1   
    78   77   78 1   
    79   77   80 1   
    80   77   86 1   
    81   78   79 2   
    82   78   93 1   
    83   80   81 1   
    84   80   87 1   
    85   80   88 1   
    86   81   82 1   
    87   81   89 1   
    88   81   90 1   
    89   82   83 1   
    90   82   84 2   
    91   83   91 1   
    92   83   92 1   
    93   93   94 1   
    94   93  100 1   
    95   94   95 1   
    96   94   97 1   
    97   94  101 1   
    98   95   96 2   
    99   95  109 1   
   100   97   98 1   
   101   97   99 1   
   102   97  102 1   
   103   98  103 1   
   104   98  104 1   
   105   98  105 1   
   106   99  106 1   
   107   99  107 1   
   108   99  108 1   
   109  109  110 1   
   110  109  117 1   
   111  110  111 1   
   112  110  113 1   
   113  110  118 1   
   114  111  112 2   
   115  111  123 1   
   116  113  114 1   
   117  113  119 1   
   118  113  120 1   
   119  114  115 1   
   120  114  116 2   
   121  115  121 1   
   122  115  122 1   
   123  123  124 1   
   124  123  135 1   
   125  124  125 1   
   126  124  127 1   
   127  124  136 1   
   128  125  126 2   
   129  125  144 1   
   130  127  128 1   
   131  127  137 1   
   132  127  138 1   
   133  128  129 ar  
   134  128  130 ar  
   135  129  131 ar  
   136  129  139 1   
   137  130  132 ar  
   138  130  140 1   
   139  131  133 ar  
   140  131  141 1   
   141  132  133 ar  
   142  132  142 1   
   143  133  134 1   
   144  134  143 1   
   145  144  145 1   
   146  144  153 1   
   147  145  146 1   
   148  145  148 1   
   149  145  154 1   
   150  146  147 2   
   151  146  159 1   
   152  148  149 1   
   153  148  155 1   
   154  148  156 1   
   155  149  150 1   
   156  149  157 1   
   157  149  158 1   
   158  150  151 1   
   159  150  152 1   
   160  159  160 1   
   161  159  168 1   
   162  160  161 1   
   163  160  163 1   
   164  160  169 1   
   165  161  162 2   
   166  161  174 1   
   167  163  164 1   
   168  163  170 1   
   169  163  171 1   
   170  164  165 1   
   171  164  172 1   
   172  164  173 1   
   173  165  166 1   
   174  165  167 1   
   175  174  175 1   
   176  174  179 1   
   177  175  176 1   
   178  175  177 1   
   179  175  178 1   
   180  181  182 1   
   181  181  183 1   
   182  184  185 1   
   183  184  186 1   
   184  187  188 1   
   185  187  189 1   
@<TRIPOS>SUBSTRUCTURE
     1 MOL         1 TEMP              0 ****  ****    0 ROOT
