@<TRIPOS>MOLECULE
MOL
  181   177     1     0     0
SMALL
resp


@<TRIPOS>ATOM
      1 C1          3.2490   -2.3630    3.9370 c3        1 MOL     -0.344791
      2 C2          4.3410   -1.4150    3.5070 c         1 MOL      0.709216
      3 O1          4.1300   -0.2240    3.2530 o         1 MOL     -0.579086
      4 H1          3.3020   -2.5120    5.0160 hc        1 MOL      0.079209
      5 H2          2.2780   -1.9410    3.6770 hc        1 MOL      0.079209
      6 H3          3.3780   -3.3200    3.4320 hc        1 MOL      0.079209
      7 N1          5.5900   -1.9400    3.5220 n         1 MOL     -0.593642
      8 C3          6.7570   -1.3390    2.8620 c3        1 MOL      0.379332
      9 C4          6.6160   -1.3170    1.3090 c         1 MOL      0.601846
     10 O2          6.1920   -2.2850    0.6990 o         1 MOL     -0.650532
     11 C5          8.0790   -1.9030    3.3450 c3        1 MOL     -0.385637
     12 C6          8.4660   -1.5220    4.7670 c         1 MOL      0.749906
     13 O3          8.1230   -0.4870    5.3320 o         1 MOL     -0.726132
     14 O4          9.1380   -2.4450    5.3640 o         1 MOL     -0.726132
     15 H4          5.6550   -2.8280    3.9870 hn        1 MOL      0.319945
     16 H5          6.7580   -0.2770    3.1120 h1        1 MOL     -0.021886
     17 H6          8.8440   -1.6530    2.6090 hc        1 MOL      0.047796
     18 H7          7.9200   -2.9810    3.3540 hc        1 MOL      0.047796
     19 N2          6.8910   -0.1520    0.7070 n         1 MOL     -0.627356
     20 C7          6.8890    0.0610   -0.7540 c3        1 MOL      0.418276
     21 C8          5.6190    0.6570   -1.3490 c         1 MOL      0.416898
     22 O5          4.9750    1.4420   -0.6010 o         1 MOL     -0.537971
     23 C9          8.1760    0.8890   -1.0640 c3        1 MOL     -0.373027
     24 H8          7.3060    0.5910    1.2550 hn        1 MOL      0.315227
     25 H9          7.0120   -0.9300   -1.1920 h1        1 MOL      0.032803
     26 H10         8.3380    0.7980   -2.1390 hc        1 MOL      0.088503
     27 H11         8.1420    1.9440   -0.8230 hc        1 MOL      0.088503
     28 H12         8.9740    0.3720   -0.5320 hc        1 MOL      0.088503
     29 N3          5.2180    0.3130   -2.5710 n         1 MOL     -0.446037
     30 C10         3.9540    0.5990   -3.2140 c3        1 MOL      0.251325
     31 C11         3.9510    2.0580   -3.8620 c         1 MOL      0.360973
     32 O6          3.7600    2.2340   -5.0900 o         1 MOL     -0.474511
     33 C12         3.4970   -0.5250   -4.1160 c3        1 MOL     -0.334575
     34 C13         3.6250   -1.9750   -3.4850 c         1 MOL      0.847547
     35 O7          4.7190   -2.5650   -3.5080 o         1 MOL     -0.774873
     36 O8          2.6200   -2.3750   -2.8460 o         1 MOL     -0.774873
     37 H13         5.7430   -0.3660   -3.1060 hn        1 MOL      0.272963
     38 H14         3.2220    0.7440   -2.4230 h1        1 MOL      0.049245
     39 H15         4.0400   -0.4650   -5.0590 hc        1 MOL      0.069835
     40 H16         2.4610   -0.3500   -4.4290 hc        1 MOL      0.069835
     41 N4          4.1870    3.0310   -2.9940 n         1 MOL     -0.310205
     42 C14         4.3560    4.4220   -3.3530 c3        1 MOL     -0.138670
     43 C15         2.9850    5.2430   -3.4310 c         1 MOL      0.495016
     44 O9          3.1000    6.3680   -3.9060 o         1 MOL     -0.555632
     45 H17         4.1790    2.8500   -2.0030 hn        1 MOL      0.251445
     46 H18         4.8440    4.5520   -4.3140 h1        1 MOL      0.106266
     47 H19         4.8690    5.0340   -2.6130 h1        1 MOL      0.106266
     48 N5          1.8150    4.6020   -3.1290 n         1 MOL     -0.182473
     49 C16         0.5620    5.3250   -3.4310 c3        1 MOL     -0.005185
     50 C17        -0.0620    6.0970   -2.1690 c         1 MOL      0.424691
     51 O10        -1.1320    6.6480   -2.2480 o         1 MOL     -0.484417
     52 C18        -0.4690    4.3760   -4.0670 c3        1 MOL     -0.222962
     53 C19         0.1350    3.4300   -5.1670 c         1 MOL      0.577694
     54 N6          0.0970    2.1020   -5.0000 n         1 MOL     -0.741015
     55 O11         0.7180    3.8590   -6.1140 o         1 MOL     -0.509166
     56 H20         1.9780    3.6550   -2.8030 hn        1 MOL      0.189084
     57 H21         0.7190    6.1580   -4.1060 h1        1 MOL      0.120768
     58 H22        -1.2730    4.9820   -4.4850 hc        1 MOL      0.087353
     59 H23        -0.8060    3.8320   -3.1770 hc        1 MOL      0.087353
     60 H24        -0.4740    1.7350   -4.2500 hn        1 MOL      0.361425
     61 H25         0.3620    1.5680   -5.8250 hn        1 MOL      0.361425
     62 N7          0.6110    6.0300   -1.0300 n         1 MOL     -0.365362
     63 C20         0.1190    6.5430    0.2330 c3        1 MOL     -0.024030
     64 C21        -1.0740    5.7670    0.7810 c         1 MOL      0.469744
     65 O12        -1.5630    4.8270    0.1620 o         1 MOL     -0.397732
     66 H26         1.5270    5.5860   -1.0680 hn        1 MOL      0.231176
     67 H27        -0.1240    7.6020    0.1520 h1        1 MOL      0.071831
     68 H28         0.9250    6.4800    0.9760 h1        1 MOL      0.071831
     69 N8         -1.5990    6.2390    1.9400 n         1 MOL     -0.253933
     70 C22        -2.9500    5.9370    2.4050 c3        1 MOL     -0.501835
     71 C23        -3.1310    4.4930    2.9080 c         1 MOL      0.532957
     72 O13        -4.2180    3.9150    2.9650 o         1 MOL     -0.527133
     73 C24        -3.4640    6.8830    3.5860 c3        1 MOL      0.498350
     74 C25        -2.9520    6.4460    5.0080 c3        1 MOL     -0.227284
     75 O14        -3.0090    8.2180    3.4000 oh        1 MOL     -0.623029
     76 H29        -1.0810    6.9710    2.4110 hn        1 MOL      0.183611
     77 H30        -3.5090    6.1280    1.4870 h1        1 MOL      0.253175
     78 H31        -4.5480    6.8000    3.6450 h1        1 MOL      0.020040
     79 H32        -2.0870    8.1700    3.6540 ho        1 MOL      0.392372
     80 H33        -3.6590    5.8400    5.5700 hc        1 MOL      0.054535
     81 H34        -1.9250    6.0830    4.8740 hc        1 MOL      0.054535
     82 H35        -2.9460    7.3870    5.5590 hc        1 MOL      0.054535
     83 N9         -1.9690    3.8240    3.2370 n         1 MOL     -0.245741
     84 C26        -1.9670    2.3940    3.5530 c3        1 MOL      0.032092
     85 C27        -1.4990    1.5040    2.3860 c         1 MOL      0.424935
     86 O15        -0.3210    1.6130    1.8990 o         1 MOL     -0.497621
     87 C28        -1.1640    2.3040    4.8700 c3        1 MOL      0.068881
     88 C29        -1.8470    3.1090    5.9180 c3        1 MOL      0.186744
     89 C30        -0.9420    0.7550    5.2710 c3        1 MOL     -0.426895
     90 C31        -3.2710    2.6520    6.3130 c3        1 MOL     -0.153994
     91 H36        -1.0440    4.1000    2.9730 hn        1 MOL      0.182546
     92 H37        -2.9880    2.0820    3.7810 h1        1 MOL      0.105203
     93 H38        -0.1710    2.6930    4.6670 hc        1 MOL      0.040227
     94 H39        -1.7530    4.1820    5.7810 hc        1 MOL     -0.065480
     95 H40        -1.2450    2.8280    6.7840 hc        1 MOL     -0.065480
     96 H41        -1.8240    0.1890    5.5610 hc        1 MOL      0.125905
     97 H42        -0.3190    0.1740    4.5840 hc        1 MOL      0.125905
     98 H43        -0.2440    0.7880    6.1090 hc        1 MOL      0.125905
     99 H44        -3.4620    1.5920    6.1360 hc        1 MOL      0.026217
    100 H45        -3.5050    3.0480    7.3080 hc        1 MOL      0.026217
    101 H46        -3.9760    3.0680    5.5930 hc        1 MOL      0.026217
    102 N10        -2.2260    0.4560    1.9630 n         1 MOL     -0.543391
    103 C32        -1.8410   -0.5870    0.9210 c3        1 MOL      0.224352
    104 C33        -3.1030   -1.0980    0.1480 c         1 MOL      0.369168
    105 O16        -3.1210   -2.1730   -0.4340 o         1 MOL     -0.401660
    106 C34        -1.1200   -1.7330    1.6600 c3        1 MOL     -0.014359
    107 C35        -0.1740   -2.5730    0.7930 c         1 MOL      0.671805
    108 O17         0.2640   -2.0880   -0.2530 o         1 MOL     -0.748859
    109 O18         0.3080   -3.6920    1.1430 o         1 MOL     -0.748859
    110 H47        -3.1700    0.5170    2.3270 hn        1 MOL      0.244788
    111 H48        -1.2130   -0.0850    0.1880 h1        1 MOL      0.084757
    112 H49        -1.8770   -2.3920    2.0780 hc        1 MOL      0.012487
    113 H50        -0.5290   -1.3410    2.4890 hc        1 MOL      0.012487
    114 N11        -4.2110   -0.3240    0.1840 n         1 MOL     -0.334353
    115 C36        -5.2120   -0.6760   -0.8300 c3        1 MOL      0.086509
    116 C37        -5.8840   -2.1060   -0.6280 c         1 MOL      0.319539
    117 O19        -6.3200   -2.4040    0.5240 o         1 MOL     -0.518110
    118 C38        -6.1860    0.4630   -1.1610 c3        1 MOL     -0.121067
    119 C39        -5.5170    1.8040   -1.4680 ca        1 MOL      0.078546
    120 C40        -4.9720    1.9580   -2.7700 ca        1 MOL     -0.198352
    121 C41        -5.3750    2.8090   -0.5440 ca        1 MOL     -0.198352
    122 C42        -4.3140    3.1650   -3.0830 ca        1 MOL     -0.043335
    123 C43        -4.7760    4.0370   -0.8700 ca        1 MOL     -0.043335
    124 C44        -4.2700    4.2320   -2.1510 ca        1 MOL     -0.156990
    125 H51        -4.3440    0.4000    0.8680 hn        1 MOL      0.281390
    126 H52        -4.5200   -0.7920   -1.6660 h1        1 MOL      0.065948
    127 H53        -6.9120    0.6160   -0.3740 hc        1 MOL      0.061208
    128 H54        -6.7980    0.1560   -2.0110 hc        1 MOL      0.061208
    129 H55        -4.9740    1.1120   -3.4300 ha        1 MOL      0.115853
    130 H56        -5.8340    2.7490    0.4320 ha        1 MOL      0.115853
    131 H57        -3.8000    3.2890   -4.0260 ha        1 MOL      0.074869
    132 H58        -4.7600    4.8320   -0.1430 ha        1 MOL      0.074869
    133 H59        -3.6760    5.1100   -2.3590 ha        1 MOL      0.123117
    134 N12        -6.0480   -2.9040   -1.6640 n         1 MOL     -0.067912
    135 C45        -6.6650   -4.2540   -1.5350 c3        1 MOL      0.047198
    136 C46        -5.9000   -5.3010   -0.7410 c         1 MOL      0.230600
    137 O20        -6.4060   -6.3810   -0.3350 o         1 MOL     -0.531757
    138 C47        -6.8200   -4.7160   -2.9750 c3        1 MOL     -0.104573
    139 C48        -5.6030   -4.1560   -3.6660 c3        1 MOL      0.043346
    140 C49        -5.4100   -2.8190   -2.9700 c3        1 MOL     -0.214108
    141 H60        -7.6750   -4.0460   -1.1650 h1        1 MOL      0.085156
    142 H61        -6.9470   -5.7900   -3.1010 hc        1 MOL      0.045986
    143 H62        -7.6950   -4.1290   -3.2380 hc        1 MOL      0.045986
    144 H63        -4.7720   -4.8200   -3.4450 hc        1 MOL      0.032305
    145 H64        -5.6950   -4.0670   -4.7420 hc        1 MOL      0.032305
    146 H65        -4.3860   -2.4660   -2.8400 h1        1 MOL      0.090040
    147 H66        -5.8690   -2.1290   -3.6770 h1        1 MOL      0.090040
    148 N13        -4.6620   -4.9860   -0.4010 n         1 MOL      0.105630
    149 C50        -3.7570   -5.7700    0.4460 c3        1 MOL     -0.185718
    150 C51        -4.0170   -5.3580    1.9040 c         1 MOL      0.384955
    151 O21        -3.6290   -6.1650    2.7390 o         1 MOL     -0.550722
    152 C52        -2.2760   -5.5980    0.1450 c3        1 MOL      0.101223
    153 C53        -1.8530   -6.0650   -1.2580 c3        1 MOL     -0.040596
    154 C54        -0.4460   -5.5890   -1.5970 c         1 MOL      0.594026
    155 O22        -0.3220   -4.6130   -2.3470 o         1 MOL     -0.710624
    156 O23         0.4440   -6.1420   -0.9730 o         1 MOL     -0.710624
    157 H67        -4.3790   -4.0610   -0.6930 hn        1 MOL      0.099942
    158 H68        -4.0130   -6.8280    0.4200 h1        1 MOL      0.126818
    159 H69        -1.7510   -6.2020    0.8880 hc        1 MOL      0.021744
    160 H70        -2.0410   -4.5510    0.3080 hc        1 MOL      0.021744
    161 H71        -2.5860   -5.7270   -1.9810 hc        1 MOL     -0.019539
    162 H72        -2.0070   -7.1400   -1.3730 hc        1 MOL     -0.019539
    163 N14        -4.6420   -4.2670    2.2780 n         1 MOL     -0.039152
    164 C55        -4.9940   -3.7830    3.6570 c3        1 MOL     -0.216026
    165 H73        -5.1640   -4.6400    4.3100 h1        1 MOL      0.085709
    166 H74        -4.1740   -3.1830    4.0520 h1        1 MOL      0.085709
    167 H75        -5.8980   -3.1770    3.6110 h1        1 MOL      0.085709
    168 H76        -4.9650   -3.6730    1.5300 hn        1 MOL      0.098769
    169 Ca1         1.9680   -3.9660   -0.8650 Ca        1 MOL      1.821260
    170 O24         3.5040   -2.1400    0.3730 oh        1 MOL     -0.858858
    171 H77         4.4030   -2.1610    0.6880 ho        1 MOL      0.417545
    172 H78         3.1840   -1.2740    0.6250 ho        1 MOL      0.417545
    173 O25         3.3440   -5.3340    0.9860 oh        1 MOL     -0.858858
    174 H79         3.3250   -6.0640    1.6080 ho        1 MOL      0.417545
    175 H80         4.0850   -4.8050    1.2730 ho        1 MOL      0.417545
    176 O26         4.8640   -4.0180   -1.1610 oh        1 MOL     -0.858858
    177 H81         5.6820   -3.9960   -0.6680 ho        1 MOL      0.417545
    178 H82         5.0480   -3.5350   -1.9700 ho        1 MOL      0.417545
    179 O27         2.6100   -5.6850   -2.7260 oh        1 MOL     -0.858858
    180 H83         2.0070   -6.2920   -3.1610 ho        1 MOL      0.417545
    181 H84         3.4240   -5.7510   -3.2290 ho        1 MOL      0.417545
@<TRIPOS>BOND
     1    1    2 1   
     2    1    4 1   
     3    1    5 1   
     4    1    6 1   
     5    2    3 2   
     6    2    7 1   
     7    7    8 1   
     8    7   15 1   
     9    8    9 1   
    10    8   11 1   
    11    8   16 1   
    12    9   10 2   
    13    9   19 1   
    14   11   12 1   
    15   11   17 1   
    16   11   18 1   
    17   12   13 1   
    18   12   14 1   
    19   19   20 1   
    20   19   24 1   
    21   20   21 1   
    22   20   23 1   
    23   20   25 1   
    24   21   22 2   
    25   21   29 1   
    26   23   26 1   
    27   23   27 1   
    28   23   28 1   
    29   29   30 1   
    30   29   37 1   
    31   30   31 1   
    32   30   33 1   
    33   30   38 1   
    34   31   32 2   
    35   31   41 1   
    36   33   34 1   
    37   33   39 1   
    38   33   40 1   
    39   34   35 1   
    40   34   36 1   
    41   41   42 1   
    42   41   45 1   
    43   42   43 1   
    44   42   46 1   
    45   42   47 1   
    46   43   44 2   
    47   43   48 1   
    48   48   49 1   
    49   48   56 1   
    50   49   50 1   
    51   49   52 1   
    52   49   57 1   
    53   50   51 2   
    54   50   62 1   
    55   52   53 1   
    56   52   58 1   
    57   52   59 1   
    58   53   54 1   
    59   53   55 2   
    60   54   60 1   
    61   54   61 1   
    62   62   63 1   
    63   62   66 1   
    64   63   64 1   
    65   63   67 1   
    66   63   68 1   
    67   64   65 2   
    68   64   69 1   
    69   69   70 1   
    70   69   76 1   
    71   70   71 1   
    72   70   73 1   
    73   70   77 1   
    74   71   72 2   
    75   71   83 1   
    76   73   74 1   
    77   73   75 1   
    78   73   78 1   
    79   74   80 1   
    80   74   81 1   
    81   74   82 1   
    82   75   79 1   
    83   83   84 1   
    84   83   91 1   
    85   84   85 1   
    86   84   87 1   
    87   84   92 1   
    88   85   86 2   
    89   85  102 1   
    90   87   88 1   
    91   87   89 1   
    92   87   93 1   
    93   88   90 1   
    94   88   94 1   
    95   88   95 1   
    96   89   96 1   
    97   89   97 1   
    98   89   98 1   
    99   90   99 1   
   100   90  100 1   
   101   90  101 1   
   102  102  103 1   
   103  102  110 1   
   104  103  104 1   
   105  103  106 1   
   106  103  111 1   
   107  104  105 2   
   108  104  114 1   
   109  106  107 1   
   110  106  112 1   
   111  106  113 1   
   112  107  108 1   
   113  107  109 1   
   114  114  115 1   
   115  114  125 1   
   116  115  116 1   
   117  115  118 1   
   118  115  126 1   
   119  116  117 2   
   120  116  134 1   
   121  118  119 1   
   122  118  127 1   
   123  118  128 1   
   124  119  120 ar  
   125  119  121 ar  
   126  120  122 ar  
   127  120  129 1   
   128  121  123 ar  
   129  121  130 1   
   130  122  124 ar  
   131  122  131 1   
   132  123  124 ar  
   133  123  132 1   
   134  124  133 1   
   135  134  135 1   
   136  134  140 1   
   137  135  136 1   
   138  135  138 1   
   139  135  141 1   
   140  136  137 2   
   141  136  148 1   
   142  138  139 1   
   143  138  142 1   
   144  138  143 1   
   145  139  140 1   
   146  139  144 1   
   147  139  145 1   
   148  140  146 1   
   149  140  147 1   
   150  148  149 1   
   151  148  157 1   
   152  149  150 1   
   153  149  152 1   
   154  149  158 1   
   155  150  151 2   
   156  150  163 1   
   157  152  153 1   
   158  152  159 1   
   159  152  160 1   
   160  153  154 1   
   161  153  161 1   
   162  153  162 1   
   163  154  155 1   
   164  154  156 1   
   165  163  164 1   
   166  163  168 1   
   167  164  165 1   
   168  164  166 1   
   169  164  167 1   
   170  170  171 1   
   171  170  172 1   
   172  173  174 1   
   173  173  175 1   
   174  176  177 1   
   175  176  178 1   
   176  179  180 1   
   177  179  181 1   
@<TRIPOS>SUBSTRUCTURE
     1 MOL         1 TEMP              0 ****  ****    0 ROOT
