@<TRIPOS>MOLECULE
MOL
  195   189     1     0     0
SMALL
resp


@<TRIPOS>ATOM
      1 C1          4.5090    8.8370    0.3880 c3        1 MOL     -0.275984
      2 C2          3.8630    7.4440    0.7100 c         1 MOL      0.650287
      3 O1          4.2020    6.7140    1.5900 o         1 MOL     -0.525536
      4 H1          4.5420    8.9810   -0.6920 hc        1 MOL      0.070899
      5 H2          3.9130    9.6290    0.8410 hc        1 MOL      0.070899
      6 H3          5.5230    8.8700    0.7880 hc        1 MOL      0.070899
      7 N1          2.7650    7.1500   -0.0290 n         1 MOL     -0.489904
      8 C3          1.8840    5.9690    0.2140 c3        1 MOL      0.050285
      9 C4          2.4590    4.5390    0.0350 c         1 MOL      0.381178
     10 O2          1.8650    3.5210    0.4130 o         1 MOL     -0.441122
     11 C5          0.5460    6.0070   -0.5950 c3        1 MOL     -0.213582
     12 C6          0.7620    5.7310   -2.0810 c         1 MOL      0.734754
     13 O3          0.5200    6.6310   -2.8800 o         1 MOL     -0.718310
     14 O4          1.2010    4.6110   -2.4310 o         1 MOL     -0.718310
     15 H4          2.3450    7.8610   -0.5980 hn        1 MOL      0.285199
     16 H5          1.6180    5.9280    1.2750 h1        1 MOL      0.057351
     17 H6          0.0460    6.9720   -0.4670 hc        1 MOL      0.067468
     18 H7         -0.0390    5.1780   -0.1990 hc        1 MOL      0.067468
     19 N2          3.6030    4.5300   -0.7070 n         1 MOL     -0.128240
     20 C7          4.2430    3.2830   -1.2420 c3        1 MOL     -0.121998
     21 C8          4.7660    2.5140   -0.0450 c         1 MOL      0.447528
     22 O5          5.5340    3.0390    0.7800 o         1 MOL     -0.546660
     23 C9          5.4580    3.6180   -2.1620 c3        1 MOL     -0.182443
     24 C10         5.1210    3.6250   -3.6700 c3        1 MOL     -0.211264
     25 C11         4.4780    4.9990   -4.1000 c3        1 MOL      0.241125
     26 C12         3.6510    4.7870   -5.3060 c3        1 MOL     -0.103707
     27 N3          2.3110    4.2390   -4.9820 n4        1 MOL     -0.192369
     28 H8          4.0450    5.4200   -0.9080 hn        1 MOL      0.164645
     29 H9          3.5260    2.6480   -1.7580 h1        1 MOL      0.135209
     30 H10         6.1480    2.7860   -2.0150 hc        1 MOL      0.114178
     31 H11         6.1040    4.4260   -1.8140 hc        1 MOL      0.114178
     32 H12         4.3920    2.8470   -3.8930 hc        1 MOL      0.075128
     33 H13         6.0400    3.4630   -4.2330 hc        1 MOL      0.075128
     34 H14         5.2850    5.6830   -4.3420 hc        1 MOL     -0.020589
     35 H15         3.8820    5.4160   -3.2880 hc        1 MOL     -0.020589
     36 H16         4.2250    4.1440   -5.9800 hx        1 MOL      0.073789
     37 H17         3.5600    5.8140   -5.6450 hx        1 MOL      0.073789
     38 H18         2.3300    3.2700   -4.7080 hn        1 MOL      0.269906
     39 H19         1.9030    4.7750   -4.2330 hn        1 MOL      0.269906
     40 H20         1.7000    4.2620   -5.7810 hn        1 MOL      0.269906
     41 N4          4.4190    1.2450    0.1640 n         1 MOL     -0.253256
     42 C13         3.6750    0.1520   -0.6030 c3        1 MOL      0.019032
     43 C14         4.1150    0.0280   -2.0490 c         1 MOL      0.369309
     44 O6          3.3050   -0.0180   -2.9780 o         1 MOL     -0.546276
     45 C15         2.1020    0.2190   -0.3900 c3        1 MOL      0.096580
     46 C16         1.6350    0.4750    1.0650 c         1 MOL      0.402431
     47 O7          0.4260    0.5830    1.3190 o         1 MOL     -0.641221
     48 O8          2.4310    0.3510    2.0080 o         1 MOL     -0.641221
     49 H21         4.8230    1.0110    1.0610 hn        1 MOL      0.233815
     50 H22         4.0350   -0.7960   -0.2330 h1        1 MOL      0.116778
     51 H23         1.7650   -0.7760   -0.6840 hc        1 MOL      0.043224
     52 H24         1.6540    0.9100   -1.1130 hc        1 MOL      0.043224
     53 N5          5.4530   -0.1590   -2.3200 n         1 MOL     -0.359666
     54 C17         6.5560   -0.3400   -1.3140 c3        1 MOL     -0.008056
     55 C18         7.8260   -1.0320   -1.8340 c         1 MOL      0.584627
     56 O9          8.0080   -1.0880   -3.0270 o         1 MOL     -0.549092
     57 H25         5.6410   -0.3070   -3.3000 hn        1 MOL      0.278438
     58 H26         6.1270   -0.9770   -0.5360 h1        1 MOL      0.027339
     59 H27         6.7770    0.5070   -0.6700 h1        1 MOL      0.027339
     60 N6          8.6700   -1.5500   -0.9230 n         1 MOL     -0.503637
     61 C19         8.5600   -1.6120    0.5420 c3        1 MOL     -0.000897
     62 C20         7.6460   -2.8580    0.7310 c         1 MOL      0.560236
     63 O10         7.9610   -3.9940    0.2740 o         1 MOL     -0.499937
     64 C21         9.8740   -1.6150    1.2790 c3        1 MOL     -0.329202
     65 C22         9.7600   -2.1880    2.7410 c         1 MOL      0.680445
     66 O11        10.1430   -3.3720    2.9720 o         1 MOL     -0.609290
     67 O12         9.3750   -1.4190    3.6310 o         1 MOL     -0.609290
     68 H28         9.4240   -2.1770   -1.1680 hn        1 MOL      0.316742
     69 H29         8.2180   -0.6520    0.9370 h1        1 MOL      0.095158
     70 H30        10.2600   -0.6010    1.3130 hc        1 MOL      0.102592
     71 H31        10.5760   -2.2430    0.7260 hc        1 MOL      0.102592
     72 N7          6.5670   -2.6620    1.4550 n         1 MOL     -0.387741
     73 C23         5.4700   -3.6540    1.4440 c3        1 MOL     -0.136047
     74 C24         4.7230   -3.8430    0.0660 c         1 MOL      0.567356
     75 O13         4.9990   -3.2830   -0.9410 o         1 MOL     -0.416144
     76 H32         6.4580   -1.7840    1.9520 hn        1 MOL      0.282315
     77 H33         4.6860   -3.4600    2.1790 h1        1 MOL      0.118544
     78 H34         5.8910   -4.6200    1.6880 h1        1 MOL      0.118544
     79 N8          3.8640   -4.8840    0.0790 n         1 MOL     -0.630928
     80 C25         2.8050   -4.9290   -0.9030 c3        1 MOL      0.347397
     81 C26         1.8410   -3.7230   -0.6750 c         1 MOL      0.171948
     82 O14         1.5300   -3.3630    0.4540 o         1 MOL     -0.454184
     83 C27         2.0760   -6.2420   -0.8610 c3        1 MOL      0.425486
     84 C28         2.9690   -7.4890   -0.7360 c3        1 MOL     -0.269482
     85 O15         1.3020   -6.3180   -2.0350 oh        1 MOL     -0.651160
     86 H35         3.7130   -5.1400    1.0440 hn        1 MOL      0.262507
     87 H36         3.2810   -4.7680   -1.8640 h1        1 MOL      0.043367
     88 H37         1.4020   -6.2120   -0.0050 h1        1 MOL     -0.014612
     89 H38         0.5740   -6.8800   -1.7460 ho        1 MOL      0.394190
     90 H39         3.6670   -7.4810   -1.5670 hc        1 MOL      0.062163
     91 H40         3.4420   -7.5710    0.2480 hc        1 MOL      0.062163
     92 H41         2.3090   -8.3620   -0.7560 hc        1 MOL      0.062163
     93 N9          1.2020   -3.2240   -1.7210 n         1 MOL     -0.343736
     94 C29        -0.1400   -2.6220   -1.5100 c3        1 MOL     -0.062561
     95 C30        -1.1300   -3.4880   -0.7490 c         1 MOL      0.625835
     96 O16        -0.9860   -4.7100   -0.6120 o         1 MOL     -0.528049
     97 C31        -0.8250   -2.1360   -2.8370 c3        1 MOL      0.069751
     98 C32        -1.1290   -3.3990   -3.6700 c3        1 MOL      0.096345
     99 C33         0.0430   -1.1000   -3.5990 c3        1 MOL     -0.422960
    100 C34        -1.2550   -3.1950   -5.2050 c3        1 MOL     -0.233110
    101 H42         1.5230   -3.3630   -2.6690 hn        1 MOL      0.311360
    102 H43        -0.0760   -1.7550   -0.8530 h1        1 MOL      0.008509
    103 H44        -1.8160   -1.6970   -2.6980 hc        1 MOL      0.013668
    104 H45        -2.0390   -3.8230   -3.2440 hc        1 MOL     -0.017346
    105 H46        -0.4390   -4.2050   -3.4200 hc        1 MOL     -0.017346
    106 H47         0.3030   -0.3210   -2.8750 hc        1 MOL      0.130307
    107 H48         0.9330   -1.5900   -3.9710 hc        1 MOL      0.130307
    108 H49        -0.6140   -0.7420   -4.4010 hc        1 MOL      0.130307
    109 H50        -1.6120   -4.0550   -5.7780 hc        1 MOL      0.058669
    110 H51        -1.9340   -2.3790   -5.4730 hc        1 MOL      0.058669
    111 H52        -0.2500   -2.9230   -5.5410 hc        1 MOL      0.058669
    112 N10        -2.2340   -2.8870   -0.2700 n         1 MOL     -0.300030
    113 C35        -3.2240   -3.6940    0.5020 c3        1 MOL     -0.223519
    114 C36        -4.6430   -3.8150    0.0040 c         1 MOL      0.669831
    115 O17        -5.2980   -4.7640    0.3000 o         1 MOL     -0.564339
    116 C37        -3.3050   -3.2250    1.9530 c3        1 MOL      0.330789
    117 C38        -3.4400   -1.7090    2.1700 c3        1 MOL     -0.186336
    118 O18        -2.0980   -3.5230    2.5210 oh        1 MOL     -0.655099
    119 H53        -2.5200   -1.9680   -0.5730 hn        1 MOL      0.268136
    120 H54        -2.8490   -4.7150    0.4980 h1        1 MOL      0.131990
    121 H55        -4.1200   -3.7510    2.4570 h1        1 MOL      0.029079
    122 H56        -2.0610   -4.4670    2.6900 ho        1 MOL      0.405289
    123 H57        -4.3030   -1.4940    1.5360 hc        1 MOL      0.056731
    124 H58        -3.7440   -1.4650    3.1870 hc        1 MOL      0.056731
    125 H59        -2.6640   -1.1210    1.6650 hc        1 MOL      0.056731
    126 N11        -5.0300   -3.0070   -0.9610 n         1 MOL     -0.530698
    127 C39        -6.4400   -2.6730   -1.3360 c3        1 MOL     -0.085091
    128 C40        -7.1960   -1.9990   -0.1880 c         1 MOL      0.581010
    129 O19        -7.2010   -2.5240    0.9200 o         1 MOL     -0.455849
    130 C41        -7.1310   -3.9280   -1.9440 c3        1 MOL      0.364332
    131 C42        -8.2880   -3.4370   -2.8420 c3        1 MOL     -0.467128
    132 O20        -7.7430   -4.8110   -0.9970 oh        1 MOL     -0.615144
    133 H60        -4.3090   -2.3540   -1.2430 hn        1 MOL      0.254092
    134 H61        -6.4290   -1.9330   -2.1380 h1        1 MOL      0.065656
    135 H62        -6.4370   -4.5770   -2.4670 h1        1 MOL      0.039890
    136 H63        -7.0260   -5.1030   -0.4260 ho        1 MOL      0.421668
    137 H64        -8.0510   -2.6480   -3.5460 hc        1 MOL      0.117043
    138 H65        -8.6100   -4.2990   -3.4170 hc        1 MOL      0.117043
    139 H66        -9.1090   -3.0950   -2.1980 hc        1 MOL      0.117043
    140 N12        -7.8310   -0.8990   -0.5800 n         1 MOL     -0.483308
    141 C43        -8.4750    0.0700    0.3100 c3        1 MOL      0.015611
    142 C44        -7.5660    0.6020    1.4140 c         1 MOL      0.483710
    143 O21        -7.9590    0.6640    2.6100 o         1 MOL     -0.560679
    144 C45        -9.1920    1.1490   -0.5590 c3        1 MOL     -0.012108
    145 C46       -10.5240    0.6690   -1.2500 c3        1 MOL      0.040886
    146 C47       -11.3850    1.7460   -1.8560 c3        1 MOL      0.079208
    147 C48       -12.4970    1.0570   -2.7200 c3        1 MOL     -0.005321
    148 N13       -13.4950    2.0500   -3.2440 n4        1 MOL     -0.176957
    149 H67        -7.8500   -0.7000   -1.5640 hn        1 MOL      0.301203
    150 H68        -9.2240   -0.5400    0.8070 h1        1 MOL      0.093242
    151 H69        -8.4320    1.4090   -1.2940 hc        1 MOL      0.012481
    152 H70        -9.2760    2.0180    0.0920 hc        1 MOL      0.012481
    153 H71       -11.1050    0.1340   -0.4920 hc        1 MOL     -0.003767
    154 H72       -10.2820   -0.0230   -2.0620 hc        1 MOL     -0.003767
    155 H73       -10.7300    2.3310   -2.5120 hc        1 MOL      0.011544
    156 H74       -11.7080    2.3930   -1.0330 hc        1 MOL      0.011544
    157 H75       -12.9730    0.3860   -2.0050 hx        1 MOL      0.075055
    158 H76       -12.1810    0.4630   -3.5810 hx        1 MOL      0.075055
    159 H77       -13.9580    1.5790   -4.0050 hn        1 MOL      0.210627
    160 H78       -14.2220    2.1820   -2.5580 hn        1 MOL      0.210627
    161 H79       -13.1560    2.9800   -3.4820 hn        1 MOL      0.210627
    162 N14        -6.4040    1.0750    1.0440 n         1 MOL     -0.397930
    163 C49        -5.4440    1.8450    1.9230 c3        1 MOL      0.014735
    164 C50        -5.9550    3.2800    2.0930 c         1 MOL      0.539999
    165 O22        -5.9140    4.0240    1.1810 o         1 MOL     -0.541232
    166 C51        -4.0150    1.7030    1.2080 c3        1 MOL      0.059739
    167 C52        -2.8310    2.5230    1.7330 c3        1 MOL      0.014783
    168 C53        -2.6020    2.3520    3.2580 c         1 MOL      0.492715
    169 O23        -1.9010    1.3790    3.6190 o         1 MOL     -0.672053
    170 O24        -2.9820    3.2890    3.9900 o         1 MOL     -0.672053
    171 H80        -6.1960    1.0670    0.0530 hn        1 MOL      0.249685
    172 H81        -5.3500    1.4090    2.9160 h1        1 MOL      0.112942
    173 H82        -4.1900    1.9170    0.1550 hc        1 MOL     -0.042349
    174 H83        -3.7250    0.6520    1.3040 hc        1 MOL     -0.042349
    175 H84        -3.0990    3.5640    1.5800 hc        1 MOL      0.010413
    176 H85        -1.9670    2.1230    1.1840 hc        1 MOL      0.010413
    177 N15        -6.4070    3.6570    3.3260 n         1 MOL     -0.195949
    178 C54        -6.9210    5.0050    3.6440 c3        1 MOL     -0.282212
    179 H86        -6.9340    5.1420    4.7260 h1        1 MOL      0.116307
    180 H87        -6.2760    5.7560    3.1910 h1        1 MOL      0.116307
    181 H88        -7.9330    5.1100    3.2520 h1        1 MOL      0.116307
    182 H89        -6.4330    2.9610    4.0610 hn        1 MOL      0.228486
    183 Ca1         0.3860    0.3450    3.8450 Ca        1 MOL      1.760247
    184 O25         2.0150   -1.2040    5.3400 oh        1 MOL     -0.891453
    185 H90         2.6150   -0.8900    6.0190 ho        1 MOL      0.434566
    186 H91         1.6140   -1.9860    5.7280 ho        1 MOL      0.434566
    187 O26         0.3670   -2.0120    2.5720 oh        1 MOL     -0.891453
    188 H92         0.8180   -2.3600    1.8030 ho        1 MOL      0.434566
    189 H93        -0.3510   -2.6280    2.7160 ho        1 MOL      0.434566
    190 O27         0.6360    2.8620    3.0860 oh        1 MOL     -0.891453
    191 H94         0.9500    3.0420    2.2050 ho        1 MOL      0.434566
    192 H95         0.2680    3.6980    3.3840 ho        1 MOL      0.434566
    193 O28        -1.2610   -1.4030    5.1550 oh        1 MOL     -0.891453
    194 H96        -1.6010   -2.2700    4.9290 ho        1 MOL      0.434566
    195 H97        -1.5510   -1.2630    6.0520 ho        1 MOL      0.434566
@<TRIPOS>BOND
     1    1    2 1   
     2    1    4 1   
     3    1    5 1   
     4    1    6 1   
     5    2    3 2   
     6    2    7 1   
     7    7    8 1   
     8    7   15 1   
     9    8    9 1   
    10    8   11 1   
    11    8   16 1   
    12    9   10 2   
    13    9   19 1   
    14   11   12 1   
    15   11   17 1   
    16   11   18 1   
    17   12   13 1   
    18   12   14 1   
    19   19   20 1   
    20   19   28 1   
    21   20   21 1   
    22   20   23 1   
    23   20   29 1   
    24   21   22 2   
    25   21   41 1   
    26   23   24 1   
    27   23   30 1   
    28   23   31 1   
    29   24   25 1   
    30   24   32 1   
    31   24   33 1   
    32   25   26 1   
    33   25   34 1   
    34   25   35 1   
    35   26   27 1   
    36   26   36 1   
    37   26   37 1   
    38   27   38 1   
    39   27   39 1   
    40   27   40 1   
    41   41   42 1   
    42   41   49 1   
    43   42   43 1   
    44   42   45 1   
    45   42   50 1   
    46   43   44 2   
    47   43   53 1   
    48   45   46 1   
    49   45   51 1   
    50   45   52 1   
    51   46   47 1   
    52   46   48 1   
    53   53   54 1   
    54   53   57 1   
    55   54   55 1   
    56   54   58 1   
    57   54   59 1   
    58   55   56 2   
    59   55   60 1   
    60   60   61 1   
    61   60   68 1   
    62   61   62 1   
    63   61   64 1   
    64   61   69 1   
    65   62   63 2   
    66   62   72 1   
    67   64   65 1   
    68   64   70 1   
    69   64   71 1   
    70   65   66 1   
    71   65   67 1   
    72   72   73 1   
    73   72   76 1   
    74   73   74 1   
    75   73   77 1   
    76   73   78 1   
    77   74   75 2   
    78   74   79 1   
    79   79   80 1   
    80   79   86 1   
    81   80   81 1   
    82   80   83 1   
    83   80   87 1   
    84   81   82 2   
    85   81   93 1   
    86   83   84 1   
    87   83   85 1   
    88   83   88 1   
    89   84   90 1   
    90   84   91 1   
    91   84   92 1   
    92   85   89 1   
    93   93   94 1   
    94   93  101 1   
    95   94   95 1   
    96   94   97 1   
    97   94  102 1   
    98   95   96 2   
    99   95  112 1   
   100   97   98 1   
   101   97   99 1   
   102   97  103 1   
   103   98  100 1   
   104   98  104 1   
   105   98  105 1   
   106   99  106 1   
   107   99  107 1   
   108   99  108 1   
   109  100  109 1   
   110  100  110 1   
   111  100  111 1   
   112  112  113 1   
   113  112  119 1   
   114  113  114 1   
   115  113  116 1   
   116  113  120 1   
   117  114  115 2   
   118  114  126 1   
   119  116  117 1   
   120  116  118 1   
   121  116  121 1   
   122  117  123 1   
   123  117  124 1   
   124  117  125 1   
   125  118  122 1   
   126  126  127 1   
   127  126  133 1   
   128  127  128 1   
   129  127  130 1   
   130  127  134 1   
   131  128  129 2   
   132  128  140 1   
   133  130  131 1   
   134  130  132 1   
   135  130  135 1   
   136  131  137 1   
   137  131  138 1   
   138  131  139 1   
   139  132  136 1   
   140  140  141 1   
   141  140  149 1   
   142  141  142 1   
   143  141  144 1   
   144  141  150 1   
   145  142  143 2   
   146  142  162 1   
   147  144  145 1   
   148  144  151 1   
   149  144  152 1   
   150  145  146 1   
   151  145  153 1   
   152  145  154 1   
   153  146  147 1   
   154  146  155 1   
   155  146  156 1   
   156  147  148 1   
   157  147  157 1   
   158  147  158 1   
   159  148  159 1   
   160  148  160 1   
   161  148  161 1   
   162  162  163 1   
   163  162  171 1   
   164  163  164 1   
   165  163  166 1   
   166  163  172 1   
   167  164  165 2   
   168  164  177 1   
   169  166  167 1   
   170  166  173 1   
   171  166  174 1   
   172  167  168 1   
   173  167  175 1   
   174  167  176 1   
   175  168  169 1   
   176  168  170 1   
   177  177  178 1   
   178  177  182 1   
   179  178  179 1   
   180  178  180 1   
   181  178  181 1   
   182  184  185 1   
   183  184  186 1   
   184  187  188 1   
   185  187  189 1   
   186  190  191 1   
   187  190  192 1   
   188  193  194 1   
   189  193  195 1   
@<TRIPOS>SUBSTRUCTURE
     1 MOL         1 TEMP              0 ****  ****    0 ROOT
