@<TRIPOS>MOLECULE
MOL
  182   178     1     0     0
SMALL
resp


@<TRIPOS>ATOM
      1 C1          0.1390   -2.7720    6.3300 c3        1 MOL     -0.301549
      2 C2          0.2880   -2.9250    4.8040 c         1 MOL      0.711862
      3 O1         -0.7950   -3.1520    4.1150 o         1 MOL     -0.594127
      4 H1         -0.7470   -2.1770    6.5500 hc        1 MOL      0.089621
      5 H2          0.0380   -3.7570    6.7850 hc        1 MOL      0.089621
      6 H3          1.0200   -2.2730    6.7330 hc        1 MOL      0.089621
      7 N1          1.5100   -2.7790    4.2590 n         1 MOL     -0.574556
      8 C3          1.7950   -2.6130    2.8850 c3        1 MOL     -0.049744
      9 C4          1.7900   -3.9890    2.1080 c         1 MOL      0.715767
     10 O2          2.0370   -4.9970    2.7420 o         1 MOL     -0.578792
     11 C5          3.0350   -1.7110    2.7620 c3        1 MOL     -0.203246
     12 C6          3.3470   -1.2410    1.3880 c         1 MOL      0.403646
     13 O3          3.8410   -0.1320    1.1970 o         1 MOL     -0.636009
     14 O4          2.9910   -1.9080    0.3710 o         1 MOL     -0.636009
     15 H4          2.2970   -2.6630    4.8930 hn        1 MOL      0.320704
     16 H5          0.8910   -2.1030    2.5700 h1        1 MOL      0.151380
     17 H6          3.9090   -2.1570    3.2390 hc        1 MOL      0.117631
     18 H7          2.8330   -0.8190    3.3590 hc        1 MOL      0.117631
     19 N2          1.5000   -4.0500    0.8200 n         1 MOL     -0.612998
     20 C7          1.4900   -5.3090   -0.0150 c3        1 MOL      0.043926
     21 C8          2.7470   -5.3870   -0.9280 c         1 MOL      0.479288
     22 O5          3.0440   -6.4860   -1.4260 o         1 MOL     -0.587462
     23 C9          0.1170   -5.3660   -0.7490 c3        1 MOL      0.219464
     24 C10        -0.0910   -6.5990   -1.6440 c3        1 MOL     -0.174085
     25 C11        -1.4910   -6.6310   -2.1470 c3        1 MOL      0.217904
     26 C12        -1.8770   -7.6590   -3.2900 c3        1 MOL     -0.109862
     27 N3         -3.3180   -7.4040   -3.7020 n4        1 MOL     -0.187840
     28 H8          1.3970   -3.1680    0.3280 hn        1 MOL      0.391792
     29 H9          1.5090   -6.1410    0.6850 h1        1 MOL      0.116848
     30 H10         0.1070   -4.5340   -1.4600 hc        1 MOL     -0.065159
     31 H11        -0.7440   -5.3420   -0.0830 hc        1 MOL     -0.065159
     32 H12         0.0900   -7.4300   -0.9620 hc        1 MOL      0.044248
     33 H13         0.5560   -6.5460   -2.5150 hc        1 MOL      0.044248
     34 H14        -1.7240   -5.6750   -2.6200 hc        1 MOL     -0.008218
     35 H15        -2.1640   -6.7530   -1.3000 hc        1 MOL     -0.008218
     36 H16        -1.7250   -8.6070   -2.7850 hx        1 MOL      0.105731
     37 H17        -1.1830   -7.5680   -4.1190 hx        1 MOL      0.105731
     38 H18        -3.5970   -6.4320   -3.7540 hn        1 MOL      0.232771
     39 H19        -3.3810   -7.6900   -4.6640 hn        1 MOL      0.232771
     40 H20        -4.0950   -7.8490   -3.2240 hn        1 MOL      0.232771
     41 N4          3.5690   -4.3480   -1.1510 n         1 MOL     -0.159039
     42 C13         4.8510   -4.2650   -1.9080 c3        1 MOL     -0.050970
     43 C14         6.0010   -3.7670   -1.0250 c         1 MOL      0.423720
     44 O6          7.1590   -3.7270   -1.4010 o         1 MOL     -0.539904
     45 C15         4.6310   -3.2870   -3.0630 c3        1 MOL     -0.313829
     46 C16         4.1710   -1.8360   -2.7680 c         1 MOL      0.797121
     47 O7          4.8370   -1.1210   -1.9780 o         1 MOL     -0.781337
     48 O8          3.0300   -1.5130   -3.1050 o         1 MOL     -0.781337
     49 H21         3.2480   -3.4590   -0.7990 hn        1 MOL      0.058376
     50 H22         5.1350   -5.2420   -2.3030 h1        1 MOL      0.152210
     51 H23         3.9250   -3.7290   -3.7630 hc        1 MOL      0.102282
     52 H24         5.5610   -3.1910   -3.6290 hc        1 MOL      0.102282
     53 N5          5.7110   -3.3030    0.2230 n         1 MOL     -0.129408
     54 C17         6.6510   -2.8980    1.3060 c3        1 MOL     -0.285082
     55 C18         7.1070   -1.4690    1.2370 c         1 MOL      0.615951
     56 O9          7.8120   -1.0810    2.1610 o         1 MOL     -0.567451
     57 H25         4.7450   -3.3680    0.5130 hn        1 MOL      0.153566
     58 H26         7.5040   -3.5580    1.1310 h1        1 MOL      0.139474
     59 H27         6.1680   -3.0280    2.2720 h1        1 MOL      0.139474
     60 N6          6.8020   -0.6580    0.2380 n         1 MOL     -0.323793
     61 C19         7.5110    0.6660   -0.0710 c3        1 MOL     -0.047680
     62 C20         6.4300    1.8150   -0.3900 c         1 MOL      0.717717
     63 O10         5.3290    1.5710   -0.8780 o         1 MOL     -0.604210
     64 C21         8.5190    0.3030   -1.1390 c3        1 MOL     -0.315321
     65 C22         9.6250   -0.6160   -0.6260 c         1 MOL      0.694018
     66 N7          9.6940   -1.8600   -1.0160 n         1 MOL     -0.793238
     67 O11        10.5520   -0.2340    0.0890 o         1 MOL     -0.567267
     68 H28         6.2540   -1.1430   -0.4640 hn        1 MOL      0.344328
     69 H29         8.0550    1.1080    0.7690 h1        1 MOL      0.075261
     70 H30         8.8720    1.2460   -1.5680 hc        1 MOL      0.087607
     71 H31         7.9150   -0.1100   -1.9370 hc        1 MOL      0.087607
     72 H32         8.9010   -2.3130   -1.4350 hn        1 MOL      0.376909
     73 H33        10.4970   -2.3480   -0.6300 hn        1 MOL      0.376909
     74 N8          6.8980    3.0280   -0.1310 n         1 MOL     -0.516794
     75 C23         6.1060    4.2210   -0.4410 c3        1 MOL      0.041718
     76 C24         4.8030    4.5500    0.3210 c         1 MOL      0.504961
     77 O12         4.7910    4.4360    1.5410 o         1 MOL     -0.496739
     78 H34         7.8410    3.1170    0.2160 hn        1 MOL      0.357674
     79 H35         5.9170    4.1720   -1.5100 h1        1 MOL      0.042969
     80 H36         6.7120    5.1270   -0.3860 h1        1 MOL      0.042969
     81 N9          3.7130    4.8240   -0.3380 n         1 MOL     -0.370974
     82 C25         2.3660    4.8570    0.1560 c3        1 MOL     -0.041110
     83 C26         1.8130    3.4900    0.6010 c         1 MOL      0.735853
     84 O13         2.3030    2.5000    0.1520 o         1 MOL     -0.581316
     85 C27         1.4370    5.5110   -0.8460 c3        1 MOL     -0.131475
     86 C28         1.7850    6.9760   -1.0930 ca        1 MOL      0.031760
     87 C29         1.7920    7.9370    0.0180 ca        1 MOL     -0.138154
     88 C30         2.3160    7.3530   -2.3610 ca        1 MOL     -0.138154
     89 C31         2.2590    9.2430   -0.2590 ca        1 MOL     -0.305625
     90 C32         2.9430    8.6360   -2.4890 ca        1 MOL     -0.305625
     91 C33         2.8110    9.5890   -1.5090 ca        1 MOL      0.427101
     92 O14         3.2820   10.8100   -1.6620 oh        1 MOL     -0.506711
     93 H37         3.8320    5.0130   -1.3220 hn        1 MOL      0.238631
     94 H38         2.3290    5.5140    1.0270 h1        1 MOL      0.078287
     95 H39         0.3790    5.5730   -0.6050 hc        1 MOL      0.050062
     96 H40         1.5290    4.9100   -1.7600 hc        1 MOL      0.050062
     97 H41         1.3930    7.6770    0.9810 ha        1 MOL      0.142238
     98 H42         2.3980    6.6190   -3.1550 ha        1 MOL      0.142238
     99 H43         2.2980    9.9340    0.5750 ha        1 MOL      0.159482
    100 H44         3.5580    8.9440   -3.3280 ha        1 MOL      0.159482
    101 H45         3.1460   11.3780   -0.9000 ho        1 MOL      0.388996
    102 N10         0.7160    3.4420    1.3320 n         1 MOL     -0.645651
    103 C34         0.0770    2.2300    2.0150 c3        1 MOL      0.073726
    104 C35        -0.2060    1.0670    1.0450 c         1 MOL      0.112476
    105 O15         0.7390    0.4220    0.6600 o         1 MOL     -0.136265
    106 C36         0.9200    1.8540    3.3110 c3        1 MOL      0.142324
    107 C37         0.3500    0.6320    4.1100 c3        1 MOL     -0.227684
    108 C38         1.1110    3.0390    4.3420 c3        1 MOL     -0.366515
    109 C39        -0.9880    0.8970    4.9070 c3        1 MOL     -0.304206
    110 H46         0.1850    4.2940    1.4810 hn        1 MOL      0.322399
    111 H47        -0.8350    2.5840    2.5000 h1        1 MOL      0.089759
    112 H48         1.9470    1.6480    3.0140 hc        1 MOL      0.073320
    113 H49         1.1300    0.3260    4.8170 hc        1 MOL      0.090623
    114 H50         0.1300   -0.2020    3.4540 hc        1 MOL      0.090623
    115 H51         1.3870    2.7050    5.3310 hc        1 MOL      0.102414
    116 H52         1.8910    3.6920    3.9440 hc        1 MOL      0.102414
    117 H53         0.1640    3.5880    4.3850 hc        1 MOL      0.102414
    118 H54        -1.4020   -0.0830    5.1420 hc        1 MOL      0.094349
    119 H55        -0.8180    1.4360    5.8340 hc        1 MOL      0.094349
    120 H56        -1.6700    1.4510    4.2520 hc        1 MOL      0.094349
    121 N11        -1.4560    0.6830    0.9130 n         1 MOL     -0.059753
    122 C40        -1.8870   -0.5500    0.1980 c3        1 MOL     -0.531389
    123 C41        -3.4190   -0.7420   -0.1410 c         1 MOL      0.729365
    124 O16        -3.7760   -1.6560   -0.7870 o         1 MOL     -0.554518
    125 C42        -1.6010   -1.7950    0.9750 c3        1 MOL      0.578578
    126 O17        -2.2890   -1.6610    2.2170 oh        1 MOL     -0.655038
    127 H57        -2.1720    1.2980    1.2630 hn        1 MOL      0.199214
    128 H58        -1.3480   -0.6590   -0.7510 h1        1 MOL      0.173611
    129 H59        -0.5210   -1.7880    1.1410 h1        1 MOL     -0.102113
    130 H60        -1.9120   -2.7120    0.4740 h1        1 MOL     -0.102113
    131 H61        -1.9020   -2.2980    2.8200 ho        1 MOL      0.405480
    132 N12        -4.3060    0.1360    0.3550 n         1 MOL     -0.565898
    133 C43        -5.7140    0.2150   -0.0970 c3        1 MOL      0.018257
    134 C44        -5.9530    0.5240   -1.5890 c         1 MOL      0.650562
    135 O18        -5.1000    1.0480   -2.2820 o         1 MOL     -0.602965
    136 C45        -6.5000    1.1650    0.8080 c3        1 MOL     -0.152092
    137 H62        -3.9510    0.9840    0.7820 hn        1 MOL      0.320549
    138 H63        -6.1240   -0.7860    0.0090 h1        1 MOL      0.132042
    139 H64        -6.1940    2.1850    0.5640 hc        1 MOL      0.058374
    140 H65        -7.5790    1.0580    0.6600 hc        1 MOL      0.058374
    141 H66        -6.2490    1.0340    1.8620 hc        1 MOL      0.058374
    142 N13        -7.0330    0.2020   -2.2300 n         1 MOL     -0.645941
    143 C46        -8.2570   -0.3630   -1.6650 c3        1 MOL      0.436112
    144 C47        -9.4430    0.2840   -2.4500 c         1 MOL      0.427079
    145 O19        -9.2630    0.5350   -3.6040 o         1 MOL     -0.523637
    146 C48        -8.2210   -1.8940   -1.8340 c3        1 MOL     -0.396076
    147 H67        -6.9350    0.3840   -3.2220 hn        1 MOL      0.349375
    148 H68        -8.4610   -0.1540   -0.6190 h1        1 MOL     -0.032608
    149 H69        -9.1710   -2.4250   -1.7160 hc        1 MOL      0.105904
    150 H70        -7.8920   -2.1020   -2.8560 hc        1 MOL      0.105904
    151 H71        -7.5460   -2.3030   -1.0800 hc        1 MOL      0.105904
    152 N14       -10.6900    0.4510   -1.9040 n         1 MOL     -0.375415
    153 C49       -10.9760    0.4450   -0.4820 c3        1 MOL     -0.452303
    154 C50       -10.2650    1.5430    0.2800 c         1 MOL      0.519021
    155 O20        -9.6710    1.3320    1.3610 o         1 MOL     -0.504173
    156 C51       -12.4740    0.4310   -0.3080 c3        1 MOL      0.242383
    157 C52       -12.8700    0.2080    1.1560 c3        1 MOL     -0.325533
    158 C53       -14.3420   -0.1800    1.2620 c         1 MOL      0.763034
    159 O21       -14.7820   -1.0360    0.5350 o         1 MOL     -0.671695
    160 O22       -15.0050    0.5110    2.0160 o         1 MOL     -0.671695
    161 H72       -11.3910    0.9230   -2.4550 hn        1 MOL      0.299566
    162 H73       -10.7160   -0.5670   -0.1840 h1        1 MOL      0.208082
    163 H74       -12.9500   -0.3600   -0.8960 hc        1 MOL     -0.004408
    164 H75       -12.9120    1.3190   -0.7820 hc        1 MOL     -0.004408
    165 H76       -12.6910    1.1120    1.7300 hc        1 MOL      0.071428
    166 H77       -12.2160   -0.5270    1.6430 hc        1 MOL      0.071428
    167 N15       -10.0510    2.7210   -0.3150 n         1 MOL     -0.258427
    168 C54        -9.2780    3.8170    0.2840 c3        1 MOL     -0.216152
    169 H78        -9.6970    4.0660    1.2590 h1        1 MOL      0.104816
    170 H79        -8.2390    3.5070    0.4030 h1        1 MOL      0.104816
    171 H80        -9.3240    4.6920   -0.3640 h1        1 MOL      0.104816
    172 H81       -10.4610    2.8300   -1.2360 hn        1 MOL      0.259641
    173 Ca1         2.8350    0.3160   -1.2090 Ca        1 MOL      1.736490
    174 O23         0.5970    1.2450   -2.1780 oh        1 MOL     -0.833195
    175 H82         0.0540    0.8230   -2.8490 ho        1 MOL      0.412573
    176 H83         0.1530    2.0780   -2.0100 ho        1 MOL      0.412573
    177 O24         0.8230   -1.7080   -1.6000 oh        1 MOL     -0.833195
    178 H84         1.4970   -2.1130   -2.1530 ho        1 MOL      0.412573
    179 H85         0.0010   -1.9700   -1.9950 ho        1 MOL      0.412573
    180 O25         3.7380    1.9570   -2.9710 oh        1 MOL     -0.833195
    181 H86         4.6210    2.1490   -2.6360 ho        1 MOL      0.412573
    182 H87         3.7200    2.3650   -3.8360 ho        1 MOL      0.412573
@<TRIPOS>BOND
     1    1    2 1   
     2    1    4 1   
     3    1    5 1   
     4    1    6 1   
     5    2    3 2   
     6    2    7 1   
     7    7    8 1   
     8    7   15 1   
     9    8    9 1   
    10    8   11 1   
    11    8   16 1   
    12    9   10 2   
    13    9   19 1   
    14   11   12 1   
    15   11   17 1   
    16   11   18 1   
    17   12   13 1   
    18   12   14 1   
    19   19   20 1   
    20   19   28 1   
    21   20   21 1   
    22   20   23 1   
    23   20   29 1   
    24   21   22 2   
    25   21   41 1   
    26   23   24 1   
    27   23   30 1   
    28   23   31 1   
    29   24   25 1   
    30   24   32 1   
    31   24   33 1   
    32   25   26 1   
    33   25   34 1   
    34   25   35 1   
    35   26   27 1   
    36   26   36 1   
    37   26   37 1   
    38   27   38 1   
    39   27   39 1   
    40   27   40 1   
    41   41   42 1   
    42   41   49 1   
    43   42   43 1   
    44   42   45 1   
    45   42   50 1   
    46   43   44 2   
    47   43   53 1   
    48   45   46 1   
    49   45   51 1   
    50   45   52 1   
    51   46   47 1   
    52   46   48 1   
    53   53   54 1   
    54   53   57 1   
    55   54   55 1   
    56   54   58 1   
    57   54   59 1   
    58   55   56 2   
    59   55   60 1   
    60   60   61 1   
    61   60   68 1   
    62   61   62 1   
    63   61   64 1   
    64   61   69 1   
    65   62   63 2   
    66   62   74 1   
    67   64   65 1   
    68   64   70 1   
    69   64   71 1   
    70   65   66 1   
    71   65   67 2   
    72   66   72 1   
    73   66   73 1   
    74   74   75 1   
    75   74   78 1   
    76   75   76 1   
    77   75   79 1   
    78   75   80 1   
    79   76   77 2   
    80   76   81 1   
    81   81   82 1   
    82   81   93 1   
    83   82   83 1   
    84   82   85 1   
    85   82   94 1   
    86   83   84 2   
    87   83  102 1   
    88   85   86 1   
    89   85   95 1   
    90   85   96 1   
    91   86   87 ar  
    92   86   88 ar  
    93   87   89 ar  
    94   87   97 1   
    95   88   90 ar  
    96   88   98 1   
    97   89   91 ar  
    98   89   99 1   
    99   90   91 ar  
   100   90  100 1   
   101   91   92 1   
   102   92  101 1   
   103  102  103 1   
   104  102  110 1   
   105  103  104 1   
   106  103  106 1   
   107  103  111 1   
   108  104  105 2   
   109  104  121 1   
   110  106  107 1   
   111  106  108 1   
   112  106  112 1   
   113  107  109 1   
   114  107  113 1   
   115  107  114 1   
   116  108  115 1   
   117  108  116 1   
   118  108  117 1   
   119  109  118 1   
   120  109  119 1   
   121  109  120 1   
   122  121  122 1   
   123  121  127 1   
   124  122  123 1   
   125  122  125 1   
   126  122  128 1   
   127  123  124 2   
   128  123  132 1   
   129  125  126 1   
   130  125  129 1   
   131  125  130 1   
   132  126  131 1   
   133  132  133 1   
   134  132  137 1   
   135  133  134 1   
   136  133  136 1   
   137  133  138 1   
   138  134  135 2   
   139  134  142 1   
   140  136  139 1   
   141  136  140 1   
   142  136  141 1   
   143  142  143 1   
   144  142  147 1   
   145  143  144 1   
   146  143  146 1   
   147  143  148 1   
   148  144  145 2   
   149  144  152 1   
   150  146  149 1   
   151  146  150 1   
   152  146  151 1   
   153  152  153 1   
   154  152  161 1   
   155  153  154 1   
   156  153  156 1   
   157  153  162 1   
   158  154  155 2   
   159  154  167 1   
   160  156  157 1   
   161  156  163 1   
   162  156  164 1   
   163  157  158 1   
   164  157  165 1   
   165  157  166 1   
   166  158  159 1   
   167  158  160 1   
   168  167  168 1   
   169  167  172 1   
   170  168  169 1   
   171  168  170 1   
   172  168  171 1   
   173  174  175 1   
   174  174  176 1   
   175  177  178 1   
   176  177  179 1   
   177  180  181 1   
   178  180  182 1   
@<TRIPOS>SUBSTRUCTURE
     1 MOL         1 TEMP              0 ****  ****    0 ROOT
