@<TRIPOS>MOLECULE
MOL
  181   177     1     0     0
SMALL
resp


@<TRIPOS>ATOM
      1 C1          5.5710   -6.2230    4.8010 c3        1 MOL     -0.329046
      2 C2          4.8980   -5.0270    4.0030 c         1 MOL      0.694134
      3 O1          3.9400   -4.4510    4.5400 o         1 MOL     -0.576766
      4 H1          5.4420   -7.1500    4.2420 hc        1 MOL      0.075480
      5 H2          6.6350   -6.0220    4.9300 hc        1 MOL      0.075480
      6 H3          5.0980   -6.3200    5.7780 hc        1 MOL      0.075480
      7 N1          5.2540   -4.7620    2.7380 n         1 MOL     -0.593682
      8 C3          6.4920   -5.3070    2.0400 c3        1 MOL      0.039104
      9 C4          6.2140   -5.8000    0.6210 c         1 MOL      0.565723
     10 O2          5.1240   -6.2850    0.2970 o         1 MOL     -0.496579
     11 C5          7.6560   -4.2480    2.1070 c3        1 MOL      0.000411
     12 C6          7.3410   -2.8970    1.5940 c         1 MOL      0.566836
     13 O3          7.3590   -2.7680    0.3900 o         1 MOL     -0.686691
     14 O4          7.0640   -1.9550    2.3520 o         1 MOL     -0.686691
     15 H4          4.7770   -3.9980    2.2690 hn        1 MOL      0.473865
     16 H5          6.8880   -6.1800    2.5790 h1        1 MOL      0.054466
     17 H6          8.6120   -4.6540    1.7800 hc        1 MOL     -0.015393
     18 H7          7.8070   -4.0580    3.1700 hc        1 MOL     -0.015393
     19 N2          7.1780   -5.8260   -0.3300 n         1 MOL     -0.587360
     20 C7          7.0330   -5.9930   -1.7910 c3        1 MOL      0.384101
     21 C8          6.1500   -4.9420   -2.4800 c         1 MOL      0.383852
     22 O5          5.8850   -5.1290   -3.6380 o         1 MOL     -0.569028
     23 C9          6.8280   -7.4390   -2.2180 c3        1 MOL     -0.381025
     24 H8          8.1480   -5.7490   -0.0690 hn        1 MOL      0.273777
     25 H9          7.9900   -5.7020   -2.2260 h1        1 MOL     -0.000366
     26 H10         7.0830   -7.5060   -3.2720 hc        1 MOL      0.095626
     27 H11         7.4690   -8.1270   -1.6710 hc        1 MOL      0.095626
     28 H12         5.7910   -7.7020   -1.9760 hc        1 MOL      0.095626
     29 N3          5.6570   -3.8880   -1.8180 n         1 MOL      0.018855
     30 C10         4.7700   -2.8290   -2.4090 c3        1 MOL     -0.051374
     31 C11         5.5340   -1.5340   -2.6850 c         1 MOL      0.510424
     32 O6          6.5950   -1.3830   -2.0500 o         1 MOL     -0.575532
     33 C12         3.5590   -2.5910   -1.4210 c3        1 MOL     -0.199485
     34 C13         3.9460   -2.2390    0.0380 c         1 MOL      0.832435
     35 O7          4.4490   -1.0990    0.2870 o         1 MOL     -0.744593
     36 O8          3.8210   -3.1080    0.9180 o         1 MOL     -0.744593
     37 H13         6.0470   -3.6570   -0.9110 hn        1 MOL     -0.031730
     38 H14         4.4190   -3.2180   -3.3580 h1        1 MOL      0.072598
     39 H15         2.9220   -3.4620   -1.2770 hc        1 MOL      0.062699
     40 H16         2.9330   -1.8170   -1.8530 hc        1 MOL      0.062699
     41 N4          5.0310   -0.5570   -3.4580 n         1 MOL     -0.418076
     42 C14         5.7050    0.6950   -3.7870 c3        1 MOL     -0.175560
     43 C15         5.7100    1.7360   -2.6420 c         1 MOL      0.856839
     44 O9          5.6500    1.4410   -1.4490 o         1 MOL     -0.716777
     45 H17         4.0930   -0.7790   -3.7580 hn        1 MOL      0.313305
     46 H18         5.1950    1.0880   -4.6610 h1        1 MOL      0.114343
     47 H19         6.7200    0.5200   -4.1620 h1        1 MOL      0.114343
     48 N5          5.9230    2.9820   -3.1470 n         1 MOL     -0.874569
     49 C16         6.0340    4.1320   -2.2650 c3        1 MOL      0.469753
     50 C17         4.6680    4.1930   -1.4260 c         1 MOL      0.510982
     51 O10         3.5350    4.0000   -1.8740 o         1 MOL     -0.491400
     52 C18         6.2600    5.3450   -3.1940 c3        1 MOL     -0.469916
     53 C19         6.5630    6.6240   -2.4240 c         1 MOL      0.740235
     54 N6          6.7970    7.7430   -3.0380 n         1 MOL     -0.790067
     55 O11         6.8990    6.5450   -1.2590 o         1 MOL     -0.593486
     56 H20         5.9850    3.0300   -4.1560 hn        1 MOL      0.373444
     57 H21         6.8550    4.0410   -1.5540 h1        1 MOL     -0.038748
     58 H22         5.4250    5.5250   -3.8630 hc        1 MOL      0.130977
     59 H23         7.0650    5.0580   -3.8770 hc        1 MOL      0.130977
     60 H24         6.7000    7.8440   -4.0370 hn        1 MOL      0.369860
     61 H25         7.1680    8.4560   -2.4190 hn        1 MOL      0.369860
     62 N7          4.8620    4.4930   -0.1080 n         1 MOL     -0.275458
     63 C20         3.7650    4.7710    0.8590 c3        1 MOL     -0.171123
     64 C21         2.8460    6.0040    0.5650 c         1 MOL      0.475838
     65 O12         3.3100    6.9460   -0.1000 o         1 MOL     -0.544732
     66 H26         5.8380    4.5970    0.1190 hn        1 MOL      0.238265
     67 H27         4.2430    4.8090    1.8450 h1        1 MOL      0.097293
     68 H28         3.1100    3.9070    0.8700 h1        1 MOL      0.097293
     69 N8          1.5920    5.9780    1.0150 n         1 MOL     -0.268680
     70 C22         0.8160    5.0080    1.7560 c3        1 MOL      0.014964
     71 C23        -0.3810    4.3710    0.9320 c         1 MOL      0.438606
     72 O13        -0.9070    5.0560    0.0300 o         1 MOL     -0.536561
     73 C24         0.3410    5.5320    3.0480 c3        1 MOL      0.409298
     74 C25         1.4330    5.8850    4.0110 c3        1 MOL     -0.288870
     75 O14        -0.4770    6.6180    2.8070 oh        1 MOL     -0.601935
     76 H29         1.0880    6.7900    0.6980 hn        1 MOL      0.249141
     77 H30         1.4920    4.1590    1.8870 h1        1 MOL      0.014915
     78 H31        -0.2290    4.7400    3.5330 h1        1 MOL     -0.012534
     79 H32        -1.3700    6.2770    2.7650 ho        1 MOL      0.394265
     80 H33         0.9400    6.2810    4.8990 hc        1 MOL      0.059734
     81 H34         2.0370    5.0080    4.2330 hc        1 MOL      0.059734
     82 H35         2.1050    6.5890    3.5380 hc        1 MOL      0.059734
     83 N9         -0.7480    3.1690    1.3260 n         1 MOL     -0.229358
     84 C26        -1.8780    2.3390    0.8140 c3        1 MOL     -0.102863
     85 C27        -2.7190    1.9090    2.0690 c         1 MOL      0.367380
     86 O15        -2.1860    1.5630    3.1070 o         1 MOL     -0.511654
     87 C28        -1.2290    1.1840    0.0250 c3        1 MOL      0.463419
     88 C29        -0.0830    0.4490    0.7300 c3        1 MOL      0.128961
     89 C30        -0.6560    1.8610   -1.2150 c3        1 MOL     -0.370888
     90 C31         0.3920   -0.7540   -0.0690 c3        1 MOL     -0.320617
     91 H36        -0.1650    2.7130    2.0100 hn        1 MOL      0.160756
     92 H37        -2.4830    2.9240    0.1220 h1        1 MOL      0.130693
     93 H38        -1.9890    0.4700   -0.2830 hc        1 MOL     -0.054187
     94 H39        -0.5060    0.2020    1.7000 hc        1 MOL     -0.048772
     95 H40         0.7620    1.1190    0.8640 hc        1 MOL     -0.048772
     96 H41        -0.3030    1.1000   -1.9100 hc        1 MOL      0.065515
     97 H42        -1.4740    2.4010   -1.7090 hc        1 MOL      0.065515
     98 H43         0.1200    2.5690   -0.9460 hc        1 MOL      0.065515
     99 H44         0.9300   -1.4060    0.6150 hc        1 MOL      0.078148
    100 H45        -0.4400   -1.2770   -0.5580 hc        1 MOL      0.078148
    101 H46         1.0790   -0.4060   -0.8380 hc        1 MOL      0.078148
    102 N10        -4.1130    1.9850    1.9750 n         1 MOL     -0.346214
    103 C32        -5.0210    2.2250    0.8530 c3        1 MOL      0.185795
    104 C33        -6.3020    1.3390    0.9010 c         1 MOL      0.192014
    105 O16        -6.9130    0.9880    1.9190 o         1 MOL     -0.449371
    106 C34        -5.4100    3.6800    0.8120 c3        1 MOL     -0.071161
    107 C35        -6.0940    4.1900    2.0340 c         1 MOL      0.685742
    108 O17        -5.3410    4.8450    2.7930 o         1 MOL     -0.690235
    109 O18        -7.3340    4.0420    2.2710 o         1 MOL     -0.690235
    110 H47        -4.6380    1.7960    2.8150 hn        1 MOL      0.285395
    111 H48        -4.4320    1.9690   -0.0360 h1        1 MOL     -0.001603
    112 H49        -6.0510    3.7340   -0.0650 hc        1 MOL     -0.021311
    113 H50        -4.5580    4.3000    0.5450 hc        1 MOL     -0.021311
    114 N11        -6.9310    1.1510   -0.2770 n         1 MOL     -0.122589
    115 C36        -8.1780    0.4390   -0.5800 c3        1 MOL      0.167468
    116 C37        -8.1300   -0.1880   -1.9790 c         1 MOL     -0.018206
    117 O19        -7.8000    0.4670   -2.9440 o         1 MOL     -0.447409
    118 C38        -9.2680    1.5310   -0.4160 c3        1 MOL     -0.298198
    119 C39       -10.6340    0.9240   -0.3910 ca        1 MOL      0.209334
    120 C40       -11.3150    0.6550   -1.5840 ca        1 MOL     -0.221372
    121 C41       -11.2500    0.6100    0.8440 ca        1 MOL     -0.221372
    122 C42       -12.5080   -0.0620   -1.6070 ca        1 MOL     -0.118353
    123 C43       -12.4880   -0.0650    0.8180 ca        1 MOL     -0.118353
    124 C44       -13.0870   -0.4590   -0.3890 ca        1 MOL     -0.131616
    125 H51        -6.5250    1.5040   -1.1410 hn        1 MOL      0.250183
    126 H52        -8.3850   -0.3240    0.1840 h1        1 MOL      0.077204
    127 H53        -9.1980    2.3310   -1.1580 hc        1 MOL      0.100771
    128 H54        -9.1320    2.1170    0.4930 hc        1 MOL      0.100771
    129 H55       -10.7730    0.9080   -2.4820 ha        1 MOL      0.159713
    130 H56       -10.7170    0.7320    1.7690 ha        1 MOL      0.159713
    131 H57       -12.9360   -0.3270   -2.5550 ha        1 MOL      0.102393
    132 H58       -12.9670   -0.3100    1.7570 ha        1 MOL      0.102393
    133 H59       -14.0250   -0.9910   -0.3760 ha        1 MOL      0.086901
    134 N12        -8.6780   -1.3740   -2.1690 n         1 MOL      0.302646
    135 C45        -9.2640   -2.2490   -1.1550 c3        1 MOL      0.045934
    136 C46        -8.2060   -2.7260   -0.1840 c         1 MOL      0.379393
    137 O20        -8.4590   -2.7220    1.0070 o         1 MOL     -0.591978
    138 C47        -9.9210   -3.3720   -1.8910 c3        1 MOL     -0.053775
    139 C48       -10.1410   -2.9070   -3.3250 c3        1 MOL      0.071473
    140 C49        -8.9420   -1.9150   -3.4880 c3        1 MOL     -0.229838
    141 H60       -10.0760   -1.7350   -0.6550 h1        1 MOL      0.039768
    142 H61        -9.1720   -4.1430   -1.9990 hc        1 MOL      0.023924
    143 H62       -10.8160   -3.7700   -1.4190 hc        1 MOL      0.023924
    144 H63       -10.2090   -3.7550   -4.0110 hc        1 MOL     -0.030078
    145 H64       -10.9860   -2.2270   -3.3960 hc        1 MOL     -0.030078
    146 H65        -8.0910   -2.4440   -3.9070 h1        1 MOL      0.095429
    147 H66        -9.2910   -1.2030   -4.2430 h1        1 MOL      0.095429
    148 N13        -7.0030   -3.0320   -0.5490 n         1 MOL     -0.199879
    149 C50        -5.9370   -3.4460    0.4530 c3        1 MOL      0.111723
    150 C51        -6.0150   -4.9380    0.8880 c         1 MOL      0.344865
    151 O21        -5.7850   -5.8440    0.0420 o         1 MOL     -0.551794
    152 C52        -4.5430   -3.2080   -0.1630 c3        1 MOL     -0.028534
    153 C53        -4.2940   -1.6700   -0.3400 c3        1 MOL     -0.192488
    154 C54        -4.5990   -1.1930   -1.7730 c         1 MOL      0.774094
    155 O22        -3.8780   -0.2780   -2.1620 o         1 MOL     -0.699494
    156 O23        -5.4530   -1.7110   -2.5750 o         1 MOL     -0.699494
    157 H67        -6.8020   -2.7980   -1.5090 hn        1 MOL      0.127409
    158 H68        -6.0530   -2.7960    1.3220 h1        1 MOL      0.113569
    159 H69        -4.4900   -3.7530   -1.1000 hc        1 MOL      0.033227
    160 H70        -3.8170   -3.7590    0.4420 hc        1 MOL      0.033227
    161 H71        -3.2320   -1.4380   -0.1840 hc        1 MOL      0.007729
    162 H72        -4.8050   -1.1400    0.4630 hc        1 MOL      0.007729
    163 N14        -6.3150   -5.3120    2.1500 n         1 MOL     -0.270606
    164 C55        -6.5950   -4.4930    3.3550 c3        1 MOL     -0.139172
    165 H73        -6.8850   -3.4870    3.0510 h1        1 MOL      0.076344
    166 H74        -7.4070   -4.9470    3.9230 h1        1 MOL      0.076344
    167 H75        -5.7000   -4.4410    3.9760 h1        1 MOL      0.076344
    168 H76        -6.3650   -6.3130    2.2990 hn        1 MOL      0.241189
    169 Ca1         6.7560   -0.1200    0.4890 Ca        1 MOL      1.745851
    170 O24         7.1870    2.5260    1.0690 oh        1 MOL     -0.778070
    171 H77         7.8900    2.9960    0.6200 ho        1 MOL      0.381310
    172 H78         7.1630    2.9040    1.9480 ho        1 MOL      0.381310
    173 O25         9.3190    0.1270    1.9860 oh        1 MOL     -0.778070
    174 H79         9.8410   -0.5750    1.5920 ho        1 MOL      0.381310
    175 H80         9.8690    0.4770    2.6750 ho        1 MOL      0.381310
    176 O26         5.4560    0.3840    2.8930 oh        1 MOL     -0.778070
    177 H81         4.9350    1.0750    3.2970 ho        1 MOL      0.381310
    178 H82         4.9390   -0.4060    3.0030 ho        1 MOL      0.381310
    179 O27         8.9010    0.8110   -0.9840 oh        1 MOL     -0.778070
    180 H83         9.2350    0.5000   -1.8300 ho        1 MOL      0.381310
    181 H84         9.6130    1.3340   -0.6310 ho        1 MOL      0.381310
@<TRIPOS>BOND
     1    1    2 1   
     2    1    4 1   
     3    1    5 1   
     4    1    6 1   
     5    2    3 2   
     6    2    7 1   
     7    7    8 1   
     8    7   15 1   
     9    8    9 1   
    10    8   11 1   
    11    8   16 1   
    12    9   10 2   
    13    9   19 1   
    14   11   12 1   
    15   11   17 1   
    16   11   18 1   
    17   12   13 1   
    18   12   14 1   
    19   19   20 1   
    20   19   24 1   
    21   20   21 1   
    22   20   23 1   
    23   20   25 1   
    24   21   22 2   
    25   21   29 1   
    26   23   26 1   
    27   23   27 1   
    28   23   28 1   
    29   29   30 1   
    30   29   37 1   
    31   30   31 1   
    32   30   33 1   
    33   30   38 1   
    34   31   32 2   
    35   31   41 1   
    36   33   34 1   
    37   33   39 1   
    38   33   40 1   
    39   34   35 1   
    40   34   36 1   
    41   41   42 1   
    42   41   45 1   
    43   42   43 1   
    44   42   46 1   
    45   42   47 1   
    46   43   44 2   
    47   43   48 1   
    48   48   49 1   
    49   48   56 1   
    50   49   50 1   
    51   49   52 1   
    52   49   57 1   
    53   50   51 2   
    54   50   62 1   
    55   52   53 1   
    56   52   58 1   
    57   52   59 1   
    58   53   54 1   
    59   53   55 2   
    60   54   60 1   
    61   54   61 1   
    62   62   63 1   
    63   62   66 1   
    64   63   64 1   
    65   63   67 1   
    66   63   68 1   
    67   64   65 2   
    68   64   69 1   
    69   69   70 1   
    70   69   76 1   
    71   70   71 1   
    72   70   73 1   
    73   70   77 1   
    74   71   72 2   
    75   71   83 1   
    76   73   74 1   
    77   73   75 1   
    78   73   78 1   
    79   74   80 1   
    80   74   81 1   
    81   74   82 1   
    82   75   79 1   
    83   83   84 1   
    84   83   91 1   
    85   84   85 1   
    86   84   87 1   
    87   84   92 1   
    88   85   86 2   
    89   85  102 1   
    90   87   88 1   
    91   87   89 1   
    92   87   93 1   
    93   88   90 1   
    94   88   94 1   
    95   88   95 1   
    96   89   96 1   
    97   89   97 1   
    98   89   98 1   
    99   90   99 1   
   100   90  100 1   
   101   90  101 1   
   102  102  103 1   
   103  102  110 1   
   104  103  104 1   
   105  103  106 1   
   106  103  111 1   
   107  104  105 2   
   108  104  114 1   
   109  106  107 1   
   110  106  112 1   
   111  106  113 1   
   112  107  108 1   
   113  107  109 1   
   114  114  115 1   
   115  114  125 1   
   116  115  116 1   
   117  115  118 1   
   118  115  126 1   
   119  116  117 2   
   120  116  134 1   
   121  118  119 1   
   122  118  127 1   
   123  118  128 1   
   124  119  120 ar  
   125  119  121 ar  
   126  120  122 ar  
   127  120  129 1   
   128  121  123 ar  
   129  121  130 1   
   130  122  124 ar  
   131  122  131 1   
   132  123  124 ar  
   133  123  132 1   
   134  124  133 1   
   135  134  135 1   
   136  134  140 1   
   137  135  136 1   
   138  135  138 1   
   139  135  141 1   
   140  136  137 2   
   141  136  148 1   
   142  138  139 1   
   143  138  142 1   
   144  138  143 1   
   145  139  140 1   
   146  139  144 1   
   147  139  145 1   
   148  140  146 1   
   149  140  147 1   
   150  148  149 1   
   151  148  157 1   
   152  149  150 1   
   153  149  152 1   
   154  149  158 1   
   155  150  151 2   
   156  150  163 1   
   157  152  153 1   
   158  152  159 1   
   159  152  160 1   
   160  153  154 1   
   161  153  161 1   
   162  153  162 1   
   163  154  155 1   
   164  154  156 1   
   165  163  164 1   
   166  163  168 1   
   167  164  165 1   
   168  164  166 1   
   169  164  167 1   
   170  170  171 1   
   171  170  172 1   
   172  173  174 1   
   173  173  175 1   
   174  176  177 1   
   175  176  178 1   
   176  179  180 1   
   177  179  181 1   
@<TRIPOS>SUBSTRUCTURE
     1 MOL         1 TEMP              0 ****  ****    0 ROOT
