@<TRIPOS>MOLECULE
MOL
  185   180     1     0     0
SMALL
resp


@<TRIPOS>ATOM
      1 C1         -4.9730    1.4410   -3.9070 c3        1 MOL     -0.436725
      2 C2         -5.8780    1.1690   -2.7220 c         1 MOL      0.531616
      3 O1         -5.4300    0.8400   -1.6110 o         1 MOL     -0.473132
      4 H1         -5.5790    1.6870   -4.7790 hc        1 MOL      0.122790
      5 H2         -4.3130    2.2780   -3.6770 hc        1 MOL      0.122790
      6 H3         -4.3740    0.5560   -4.1200 hc        1 MOL      0.122790
      7 N1         -7.2340    1.2570   -2.8720 n         1 MOL     -0.505992
      8 C3         -8.1830    1.5310   -1.7900 c3        1 MOL      0.373926
      9 C4         -8.3240    0.4090   -0.7410 c         1 MOL      0.278697
     10 O2         -8.7500    0.7340    0.3800 o         1 MOL     -0.435015
     11 C5         -7.9760    2.8900   -1.1270 c3        1 MOL     -0.465657
     12 C6         -9.1830    3.3170   -0.2960 c         1 MOL      0.804568
     13 O3        -10.3450    3.2850   -0.6750 o         1 MOL     -0.683307
     14 O4         -8.9630    3.8720    0.7990 o         1 MOL     -0.683307
     15 H4         -7.5850    1.4210   -3.8110 hn        1 MOL      0.291464
     16 H5         -9.1800    1.4410   -2.2210 h1        1 MOL     -0.036563
     17 H6         -7.9200    3.5100   -2.0180 hc        1 MOL      0.106934
     18 H7         -7.0940    2.9380   -0.4760 hc        1 MOL      0.106934
     19 N2         -7.9830   -0.8570   -1.1160 n         1 MOL     -0.080187
     20 C7         -7.9810   -2.1390   -0.3260 c3        1 MOL      0.005234
     21 C8         -6.5270   -2.7100   -0.1690 c         1 MOL      0.559381
     22 O5         -6.3480   -3.8830    0.2380 o         1 MOL     -0.592482
     23 C9         -8.9390   -3.1850   -0.9140 c3        1 MOL     -0.041667
     24 C10       -10.4650   -2.8830   -0.8850 c3        1 MOL      0.033146
     25 C11       -11.0280   -2.9260    0.5370 c3        1 MOL     -0.000131
     26 C12       -12.5420   -2.8840    0.4680 c3        1 MOL      0.179862
     27 N3        -13.2720   -2.6430    1.8010 n4        1 MOL     -0.391621
     28 H8         -7.8960   -0.9870   -2.1150 hn        1 MOL      0.106057
     29 H9         -8.3230   -1.8980    0.6750 h1        1 MOL      0.046528
     30 H10        -8.8620   -4.0920   -0.3020 hc        1 MOL      0.029072
     31 H11        -8.6450   -3.5200   -1.9130 hc        1 MOL      0.029072
     32 H12       -10.9910   -3.6860   -1.4010 hc        1 MOL     -0.006350
     33 H13       -10.7000   -1.9650   -1.4170 hc        1 MOL     -0.006350
     34 H14       -10.7460   -2.0290    1.0840 hc        1 MOL      0.033316
     35 H15       -10.7930   -3.8570    1.0510 hc        1 MOL      0.033316
     36 H16       -13.0530   -3.7220    0.0040 hx        1 MOL      0.029662
     37 H17       -12.8100   -2.0200   -0.1340 hx        1 MOL      0.029662
     38 H18       -13.0140   -3.3130    2.5130 hn        1 MOL      0.287391
     39 H19       -13.1020   -1.6840    2.0570 hn        1 MOL      0.287391
     40 H20       -14.2760   -2.7360    1.7050 hn        1 MOL      0.287391
     41 N4         -5.5030   -1.9340   -0.5910 n         1 MOL     -0.441705
     42 C13        -4.1160   -2.3270   -0.3700 c3        1 MOL     -0.005821
     43 C14        -3.8380   -2.5320    1.1460 c         1 MOL      0.665566
     44 O6         -3.8880   -1.5400    1.8900 o         1 MOL     -0.546093
     45 C15        -3.3000   -1.1280   -0.9240 c3        1 MOL     -0.299018
     46 C16        -1.7760   -1.3820   -0.8280 c         1 MOL      0.739587
     47 O7         -1.2560   -2.4390   -1.2030 o         1 MOL     -0.754332
     48 O8         -0.9940   -0.5040   -0.4060 o         1 MOL     -0.754332
     49 H21        -5.7400   -0.9810   -0.8310 hn        1 MOL      0.225144
     50 H22        -3.8500   -3.2140   -0.9490 h1        1 MOL      0.073436
     51 H23        -3.4730   -0.1950   -0.3810 hc        1 MOL      0.135767
     52 H24        -3.6200   -0.8830   -1.9420 hc        1 MOL      0.135767
     53 N5         -3.3800   -3.6880    1.5250 n         1 MOL     -0.323185
     54 C17        -3.2100   -4.0530    2.9230 c3        1 MOL     -0.106562
     55 C18        -2.2640   -3.1240    3.7460 c         1 MOL      0.438209
     56 O9         -2.6040   -2.7930    4.8930 o         1 MOL     -0.515888
     57 H25        -3.1490   -4.3660    0.8230 hn        1 MOL      0.259292
     58 H26        -2.8650   -5.0820    2.9990 h1        1 MOL      0.097437
     59 H27        -4.2040   -4.0540    3.3740 h1        1 MOL      0.097437
     60 N6         -1.1540   -2.6290    3.1620 n         1 MOL     -0.410516
     61 C19        -0.3930   -1.5840    3.8890 c3        1 MOL      0.150735
     62 C20        -0.7220   -0.1070    3.6450 c         1 MOL      0.314309
     63 O10        -0.4110    0.7300    4.5340 o         1 MOL     -0.535975
     64 C21         1.0960   -1.8550    3.8010 c3        1 MOL     -0.337592
     65 C22         1.5980   -1.7860    2.3640 c         1 MOL      0.751440
     66 N7          2.9200   -1.8280    2.2520 n         1 MOL     -0.649003
     67 O11         0.8960   -1.7420    1.3690 o         1 MOL     -0.669939
     68 H28        -0.9110   -2.9990    2.2600 hn        1 MOL      0.310666
     69 H29        -0.6370   -1.7000    4.9460 h1        1 MOL      0.118265
     70 H30         1.3120   -2.8500    4.1640 hc        1 MOL      0.101699
     71 H31         1.5170   -1.1280    4.5010 hc        1 MOL      0.101699
     72 H32         3.4830   -1.7590    3.0970 hn        1 MOL      0.271833
     73 H33         3.3520   -1.7750    1.3480 hn        1 MOL      0.271833
     74 N8         -1.5230    0.2760    2.6520 n         1 MOL      0.095084
     75 C23        -2.0900    1.6650    2.4630 c3        1 MOL     -0.550833
     76 C24        -0.9060    2.5180    1.8380 c         1 MOL      0.830668
     77 O12        -0.5940    3.5330    2.4590 o         1 MOL     -0.574681
     78 H34        -1.7030   -0.3930    1.9190 hn        1 MOL      0.073242
     79 H35        -2.3520    2.0380    3.4500 h1        1 MOL      0.225010
     80 H36        -2.8910    1.5450    1.7450 h1        1 MOL      0.225010
     81 N9         -0.2070    2.0630    0.8150 n         1 MOL     -0.752345
     82 C25         0.5180    2.9030   -0.0080 c3        1 MOL      0.587078
     83 C26         1.8140    2.3570   -0.6760 c         1 MOL      0.238639
     84 O13         1.9270    1.1670   -0.8400 o         1 MOL     -0.456261
     85 C27        -0.3210    3.5430   -1.1870 c3        1 MOL     -0.073491
     86 C28        -1.4580    4.4830   -0.8220 ca        1 MOL      0.123254
     87 C29        -1.3420    5.8670   -0.8460 ca        1 MOL     -0.266690
     88 C30        -2.7320    3.9300   -0.5470 ca        1 MOL     -0.266690
     89 C31        -2.4730    6.6860   -0.5980 ca        1 MOL     -0.134531
     90 C32        -3.8520    4.7270   -0.3170 ca        1 MOL     -0.134531
     91 C33        -3.7250    6.0870   -0.4230 ca        1 MOL      0.251461
     92 O14        -4.8280    6.8140   -0.2490 oh        1 MOL     -0.491885
     93 H37        -0.4820    1.2010    0.3640 hn        1 MOL      0.253530
     94 H38         0.8760    3.7490    0.5770 h1        1 MOL     -0.090548
     95 H39        -0.7670    2.7240   -1.7550 hc        1 MOL     -0.007271
     96 H40         0.3220    4.1110   -1.8600 hc        1 MOL     -0.007271
     97 H41        -0.4250    6.4020   -1.0030 ha        1 MOL      0.140507
     98 H42        -2.8020    2.8580   -0.5570 ha        1 MOL      0.140507
     99 H43        -2.4610    7.7570   -0.7380 ha        1 MOL      0.127377
    100 H44        -4.8110    4.3840    0.0340 ha        1 MOL      0.127377
    101 H45        -5.5370    6.1720   -0.1610 ho        1 MOL      0.400798
    102 N10         2.8080    3.1810   -1.0060 n         1 MOL     -0.273558
    103 C34         4.1050    2.6510   -1.3420 c3        1 MOL     -0.008292
    104 C35         4.8710    2.3050   -0.0930 c         1 MOL      0.500379
    105 O15         5.4610    1.2080   -0.0110 o         1 MOL     -0.470073
    106 C36         4.9280    3.6970   -2.2420 c3        1 MOL      0.064270
    107 C37         4.1450    3.9300   -3.5630 c3        1 MOL      0.034643
    108 C38         6.3970    3.3330   -2.3770 c3        1 MOL     -0.182598
    109 C39         4.2300    2.7700   -4.5170 c3        1 MOL     -0.102475
    110 H46         2.6800    4.1840   -1.0930 hn        1 MOL      0.241992
    111 H47         4.0040    1.7280   -1.9200 h1        1 MOL      0.036158
    112 H48         4.9700    4.6980   -1.8080 hc        1 MOL     -0.027033
    113 H49         4.6090    4.7540   -4.1140 hc        1 MOL      0.012485
    114 H50         3.1310    4.2330   -3.2910 hc        1 MOL      0.012485
    115 H51         6.9090    3.9020   -3.1610 hc        1 MOL      0.062814
    116 H52         6.9030    3.4590   -1.4180 hc        1 MOL      0.062814
    117 H53         6.4550    2.2930   -2.6880 hc        1 MOL      0.062814
    118 H54         5.2220    2.3160   -4.5680 hc        1 MOL      0.026464
    119 H55         3.4610    2.0270   -4.3080 hc        1 MOL      0.026464
    120 H56         3.9290    3.2070   -5.4750 hc        1 MOL      0.026464
    121 N11         4.8600    3.2110    0.9280 n         1 MOL     -0.347372
    122 C40         5.1650    2.7540    2.3140 c3        1 MOL     -0.072789
    123 C41         6.6290    2.2980    2.5380 c         1 MOL      0.329001
    124 O16         6.8850    1.7310    3.5930 o         1 MOL     -0.472075
    125 C42         4.8610    3.7930    3.3230 c3        1 MOL      0.202079
    126 O17         3.4960    4.2220    3.0540 oh        1 MOL     -0.606266
    127 H57         4.2560    4.0230    0.8500 hn        1 MOL      0.262863
    128 H58         4.5630    1.8510    2.3950 h1        1 MOL      0.120157
    129 H59         5.5140    4.6600    3.3140 h1        1 MOL      0.066342
    130 H60         4.8540    3.4060    4.3430 h1        1 MOL      0.066342
    131 H61         2.9100    3.5790    3.4660 ho        1 MOL      0.416419
    132 N12         7.5540    2.5490    1.5910 n         1 MOL     -0.264577
    133 C43         8.8880    1.9500    1.4280 c3        1 MOL      0.330150
    134 C44         8.9540    0.3870    1.4560 c         1 MOL      0.400377
    135 O18         9.8520   -0.2680    1.9660 o         1 MOL     -0.493357
    136 C45         9.8320    2.7260    2.3690 c3        1 MOL     -0.362573
    137 H62         7.2940    3.1580    0.8340 hn        1 MOL      0.177513
    138 H63         9.2240    2.2050    0.4230 h1        1 MOL      0.004184
    139 H64         9.5790    3.7800    2.3490 hc        1 MOL      0.098067
    140 H65         9.8120    2.3000    3.3790 hc        1 MOL      0.098067
    141 H66        10.8700    2.6080    2.0710 hc        1 MOL      0.098067
    142 N13         7.8260   -0.2340    1.0090 n         1 MOL     -0.572120
    143 C46         7.7070   -1.7130    0.9790 c3        1 MOL      0.535243
    144 C47         6.9210   -2.2410   -0.2570 c         1 MOL      0.276829
    145 O19         6.4770   -1.4240   -1.0870 o         1 MOL     -0.424034
    146 C48         6.8860   -2.0930    2.1770 c3        1 MOL     -0.355675
    147 H67         7.0480    0.2840    0.6350 hn        1 MOL      0.200031
    148 H68         8.6510   -2.2390    1.1230 h1        1 MOL     -0.011691
    149 H69         6.8030   -3.1820    2.1300 hc        1 MOL      0.108136
    150 H70         7.5630   -1.9200    3.0100 hc        1 MOL      0.108136
    151 H71         5.9790   -1.4930    2.1980 hc        1 MOL      0.108136
    152 N14         6.9950   -3.5390   -0.5130 n         1 MOL     -0.594665
    153 C49         6.4390   -4.1860   -1.6890 c3        1 MOL      0.171214
    154 C50         7.0870   -3.7070   -2.9720 c         1 MOL      0.409166
    155 O20         6.5760   -3.6910   -4.0910 o         1 MOL     -0.517717
    156 C51         4.9160   -4.1860   -1.7440 c3        1 MOL      0.161512
    157 C52         4.2310   -4.7470   -0.5340 c3        1 MOL     -0.161642
    158 C53         2.6950   -4.8380   -0.5030 c         1 MOL      0.629618
    159 O21         2.1870   -6.0030   -0.3660 o         1 MOL     -0.660813
    160 O22         2.0100   -3.7720   -0.4500 o         1 MOL     -0.660813
    161 H72         7.5440   -4.0780    0.1410 hn        1 MOL      0.346314
    162 H73         6.7060   -5.2440   -1.6400 h1        1 MOL      0.035364
    163 H74         4.6800   -4.8610   -2.5690 hc        1 MOL     -0.049335
    164 H75         4.5890   -3.1770   -1.9710 hc        1 MOL     -0.049335
    165 H76         4.5130   -4.1700    0.3520 hc        1 MOL      0.018033
    166 H77         4.7140   -5.7180   -0.4650 hc        1 MOL      0.018033
    167 N15         8.3430   -3.3260   -2.8470 n         1 MOL     -0.260968
    168 C54         9.0430   -2.5490   -3.9090 c3        1 MOL     -0.118126
    169 H78         8.3060   -2.0640   -4.5480 h1        1 MOL      0.081950
    170 H79         9.6770   -1.7930   -3.4480 h1        1 MOL      0.081950
    171 H80         9.6560   -3.2220   -4.5080 h1        1 MOL      0.081950
    172 H81         8.8480   -3.5630   -2.0160 hn        1 MOL      0.218125
    173 Ca1         1.2440   -1.3260   -1.2860 Ca        1 MOL      1.771299
    174 O23         1.1940   -3.3780   -3.2270 oh        1 MOL     -0.829560
    175 H82         1.0010   -4.2620   -2.9170 ho        1 MOL      0.411765
    176 H83         1.3870   -3.4870   -4.1580 ho        1 MOL      0.411765
    177 O24         3.8040   -1.1140   -0.2200 oh        1 MOL     -0.829560
    178 H84         4.5910   -1.4030   -0.6900 ho        1 MOL      0.411765
    179 H85         3.9540   -0.1730   -0.0710 ho        1 MOL      0.411765
    180 O25         3.2270   -1.0350   -3.3150 oh        1 MOL     -0.829560
    181 H86         2.9680   -0.8460   -4.2150 ho        1 MOL      0.411765
    182 H87         4.1800   -1.1670   -3.3600 ho        1 MOL      0.411765
    183 O26        -0.2360   -0.1300   -3.2420 oh        1 MOL     -0.829560
    184 H88        -0.0420    0.6800   -3.7130 ho        1 MOL      0.411765
    185 H89        -0.9920   -0.5070   -3.7050 ho        1 MOL      0.411765
@<TRIPOS>BOND
     1    1    2 1   
     2    1    4 1   
     3    1    5 1   
     4    1    6 1   
     5    2    3 2   
     6    2    7 1   
     7    7    8 1   
     8    7   15 1   
     9    8    9 1   
    10    8   11 1   
    11    8   16 1   
    12    9   10 2   
    13    9   19 1   
    14   11   12 1   
    15   11   17 1   
    16   11   18 1   
    17   12   13 1   
    18   12   14 1   
    19   19   20 1   
    20   19   28 1   
    21   20   21 1   
    22   20   23 1   
    23   20   29 1   
    24   21   22 2   
    25   21   41 1   
    26   23   24 1   
    27   23   30 1   
    28   23   31 1   
    29   24   25 1   
    30   24   32 1   
    31   24   33 1   
    32   25   26 1   
    33   25   34 1   
    34   25   35 1   
    35   26   27 1   
    36   26   36 1   
    37   26   37 1   
    38   27   38 1   
    39   27   39 1   
    40   27   40 1   
    41   41   42 1   
    42   41   49 1   
    43   42   43 1   
    44   42   45 1   
    45   42   50 1   
    46   43   44 2   
    47   43   53 1   
    48   45   46 1   
    49   45   51 1   
    50   45   52 1   
    51   46   47 1   
    52   46   48 1   
    53   53   54 1   
    54   53   57 1   
    55   54   55 1   
    56   54   58 1   
    57   54   59 1   
    58   55   56 2   
    59   55   60 1   
    60   60   61 1   
    61   60   68 1   
    62   61   62 1   
    63   61   64 1   
    64   61   69 1   
    65   62   63 2   
    66   62   74 1   
    67   64   65 1   
    68   64   70 1   
    69   64   71 1   
    70   65   66 1   
    71   65   67 2   
    72   66   72 1   
    73   66   73 1   
    74   74   75 1   
    75   74   78 1   
    76   75   76 1   
    77   75   79 1   
    78   75   80 1   
    79   76   77 2   
    80   76   81 1   
    81   81   82 1   
    82   81   93 1   
    83   82   83 1   
    84   82   85 1   
    85   82   94 1   
    86   83   84 2   
    87   83  102 1   
    88   85   86 1   
    89   85   95 1   
    90   85   96 1   
    91   86   87 ar  
    92   86   88 ar  
    93   87   89 ar  
    94   87   97 1   
    95   88   90 ar  
    96   88   98 1   
    97   89   91 ar  
    98   89   99 1   
    99   90   91 ar  
   100   90  100 1   
   101   91   92 1   
   102   92  101 1   
   103  102  103 1   
   104  102  110 1   
   105  103  104 1   
   106  103  106 1   
   107  103  111 1   
   108  104  105 2   
   109  104  121 1   
   110  106  107 1   
   111  106  108 1   
   112  106  112 1   
   113  107  109 1   
   114  107  113 1   
   115  107  114 1   
   116  108  115 1   
   117  108  116 1   
   118  108  117 1   
   119  109  118 1   
   120  109  119 1   
   121  109  120 1   
   122  121  122 1   
   123  121  127 1   
   124  122  123 1   
   125  122  125 1   
   126  122  128 1   
   127  123  124 2   
   128  123  132 1   
   129  125  126 1   
   130  125  129 1   
   131  125  130 1   
   132  126  131 1   
   133  132  133 1   
   134  132  137 1   
   135  133  134 1   
   136  133  136 1   
   137  133  138 1   
   138  134  135 2   
   139  134  142 1   
   140  136  139 1   
   141  136  140 1   
   142  136  141 1   
   143  142  143 1   
   144  142  147 1   
   145  143  144 1   
   146  143  146 1   
   147  143  148 1   
   148  144  145 2   
   149  144  152 1   
   150  146  149 1   
   151  146  150 1   
   152  146  151 1   
   153  152  153 1   
   154  152  161 1   
   155  153  154 1   
   156  153  156 1   
   157  153  162 1   
   158  154  155 2   
   159  154  167 1   
   160  156  157 1   
   161  156  163 1   
   162  156  164 1   
   163  157  158 1   
   164  157  165 1   
   165  157  166 1   
   166  158  159 1   
   167  158  160 1   
   168  167  168 1   
   169  167  172 1   
   170  168  169 1   
   171  168  170 1   
   172  168  171 1   
   173  174  175 1   
   174  174  176 1   
   175  177  178 1   
   176  177  179 1   
   177  180  181 1   
   178  180  182 1   
   179  183  184 1   
   180  183  185 1   
@<TRIPOS>SUBSTRUCTURE
     1 MOL         1 TEMP              0 ****  ****    0 ROOT
