@<TRIPOS>MOLECULE
MOL
  192   187     1     0     0
SMALL
resp


@<TRIPOS>ATOM
      1 C1         -6.5610   -2.5300    5.1380 c3        1 MOL     -0.120961
      2 C2         -5.9400   -2.0530    3.8300 c         1 MOL      0.721885
      3 O1         -5.6720   -2.8710    2.9270 o         1 MOL     -0.601154
      4 H1         -6.0010   -2.1190    5.9770 hc        1 MOL      0.027116
      5 H2         -7.5970   -2.1940    5.1930 hc        1 MOL      0.027116
      6 H3         -6.5300   -3.6200    5.1790 hc        1 MOL      0.027116
      7 N1         -5.8920   -0.7410    3.5890 n         1 MOL     -0.487432
      8 C3         -5.3120   -0.1890    2.3820 c3        1 MOL      0.047644
      9 C4         -3.7620   -0.3070    2.1830 c         1 MOL      0.015387
     10 O2         -3.2150    0.2570    1.2200 o         1 MOL     -0.027230
     11 C5         -5.5180    1.3360    2.2610 c3        1 MOL      0.017663
     12 C6         -5.5490    2.0620    3.6210 c         1 MOL      0.628823
     13 O3         -4.7930    2.9870    3.9100 o         1 MOL     -0.675997
     14 O4         -6.5450    1.8310    4.3380 o         1 MOL     -0.675997
     15 H4         -6.2090   -0.1470    4.3420 hn        1 MOL      0.258708
     16 H5         -5.8000   -0.7220    1.5540 h1        1 MOL      0.120002
     17 H6         -6.4750    1.5130    1.7620 hc        1 MOL      0.014333
     18 H7         -4.7310    1.8210    1.6850 hc        1 MOL      0.014333
     19 N2         -3.1060   -1.0850    3.0580 n         1 MOL     -0.335417
     20 C7         -1.6490   -1.2410    2.9980 c3        1 MOL      0.305684
     21 C8         -1.2030   -2.4850    2.1900 c         1 MOL      0.355319
     22 O5         -1.6440   -3.6110    2.4340 o         1 MOL     -0.496030
     23 C9         -0.9890   -1.2810    4.4070 c3        1 MOL     -0.324942
     24 C10        -0.5300    0.0730    5.0850 c3        1 MOL      0.087013
     25 C11        -1.5700    1.1130    4.9330 c3        1 MOL      0.087256
     26 C12        -1.0980    2.5180    5.4090 c3        1 MOL     -0.060669
     27 N3         -2.1760    3.5150    5.3590 n4        1 MOL     -0.217642
     28 H8         -3.6720   -1.7180    3.6070 hn        1 MOL      0.270017
     29 H9         -1.2380   -0.3680    2.5050 h1        1 MOL     -0.096422
     30 H10        -0.1110   -1.9340    4.3730 hc        1 MOL      0.084809
     31 H11        -1.8050   -1.6880    5.0070 hc        1 MOL      0.084809
     32 H12         0.3740    0.3620    4.5540 hc        1 MOL      0.008471
     33 H13        -0.2510    0.0090    6.1350 hc        1 MOL      0.008471
     34 H14        -2.3900    0.8780    5.6080 hc        1 MOL      0.009832
     35 H15        -1.8420    1.1810    3.8880 hc        1 MOL      0.009832
     36 H16        -0.1890    2.6940    4.8340 hx        1 MOL      0.070291
     37 H17        -0.7620    2.2860    6.4190 hx        1 MOL      0.070291
     38 H18        -1.7930    4.4120    5.6170 hn        1 MOL      0.274101
     39 H19        -2.4180    3.7030    4.3940 hn        1 MOL      0.274101
     40 H20        -3.0290    3.2930    5.8460 hn        1 MOL      0.274101
     41 N4         -0.2570   -2.3770    1.2730 n         1 MOL     -0.145020
     42 C13         0.5010   -1.2130    0.8320 c3        1 MOL     -0.042752
     43 C14         1.1650   -0.2580    1.7940 c         1 MOL      0.643308
     44 O6          0.7420    0.8540    2.0050 o         1 MOL     -0.550316
     45 C15        -0.2030   -0.4480   -0.3760 c3        1 MOL     -0.052919
     46 C16        -0.1850   -1.3610   -1.6440 c         1 MOL      0.845770
     47 O7          0.2760   -2.5270   -1.6660 o         1 MOL     -0.770043
     48 O8         -0.5750   -0.8890   -2.7240 o         1 MOL     -0.770043
     49 H21        -0.2690   -3.1830    0.6670 hn        1 MOL      0.104170
     50 H22         1.3650   -1.6480    0.3320 h1        1 MOL     -0.051345
     51 H23         0.3700    0.4660   -0.5670 hc        1 MOL      0.069319
     52 H24        -1.2300   -0.1620   -0.1770 hc        1 MOL      0.069319
     53 N5          2.2270   -0.6890    2.4310 n         1 MOL     -0.478847
     54 C17         3.0990   -1.8720    2.0400 c3        1 MOL      0.027654
     55 C18         4.1510   -2.3260    3.0630 c         1 MOL      0.597923
     56 O9          4.4140   -1.5900    4.0170 o         1 MOL     -0.544135
     57 H25         2.7370   -0.0910    3.0530 hn        1 MOL      0.303824
     58 H26         3.5270   -1.7360    1.0390 h1        1 MOL      0.068601
     59 H27         2.4580   -2.7500    1.9870 h1        1 MOL      0.068601
     60 N6          4.8170   -3.4230    2.8340 n         1 MOL     -0.536775
     61 C19         4.9540   -4.2430    1.5930 c3        1 MOL      0.240926
     62 C20         5.8390   -3.6690    0.4790 c         1 MOL      0.279803
     63 O10         6.8660   -3.0140    0.7370 o         1 MOL     -0.428348
     64 C21         5.5120   -5.5960    1.9730 c3        1 MOL     -0.222949
     65 C22         6.8680   -5.5620    2.6580 c         1 MOL      0.719995
     66 O11         6.9950   -5.4640    3.8890 o         1 MOL     -0.628733
     67 O12         7.8960   -5.8480    1.9330 o         1 MOL     -0.628733
     68 H28         5.4540   -3.6320    3.5870 hn        1 MOL      0.310299
     69 H29         3.9960   -4.4320    1.1040 h1        1 MOL     -0.021675
     70 H30         5.4040   -6.0810    1.0020 hc        1 MOL      0.030110
     71 H31         4.7960   -6.0600    2.6580 hc        1 MOL      0.030110
     72 N7          5.5400   -3.9010   -0.7700 n         1 MOL     -0.069424
     73 C23         6.3230   -3.5370   -1.9480 c3        1 MOL     -0.280120
     74 C24         6.3930   -2.0890   -2.3530 c         1 MOL      0.546634
     75 O13         7.1530   -1.7070   -3.2680 o         1 MOL     -0.561491
     76 H32         4.7090   -4.4410   -0.9720 hn        1 MOL      0.133487
     77 H33         6.0960   -4.1590   -2.8070 h1        1 MOL      0.140044
     78 H34         7.3250   -3.8750   -1.7010 h1        1 MOL      0.140044
     79 N8          5.4810   -1.2520   -1.8550 n         1 MOL     -0.278023
     80 C25         5.3490    0.1730   -2.1060 c3        1 MOL      0.310666
     81 C26         5.4260    0.9340   -0.7920 c         1 MOL      0.322282
     82 O14         5.1800    0.3930    0.2860 o         1 MOL     -0.448778
     83 C27         3.9770    0.4150   -2.7130 c3        1 MOL      0.186033
     84 C28         3.7500   -0.3040   -4.0850 c3        1 MOL     -0.417862
     85 O15         3.6490    1.7350   -2.8750 oh        1 MOL     -0.614717
     86 H35         4.9380   -1.6270   -1.0850 hn        1 MOL      0.047418
     87 H36         6.1430    0.4860   -2.7790 h1        1 MOL      0.022421
     88 H37         3.2530   -0.0190   -2.0200 h1        1 MOL      0.064363
     89 H38         2.8860    1.6520   -3.4530 ho        1 MOL      0.417822
     90 H39         2.7770   -0.1140   -4.5330 hc        1 MOL      0.103760
     91 H40         4.4860    0.2110   -4.7030 hc        1 MOL      0.103760
     92 H41         3.9540   -1.3690   -4.0730 hc        1 MOL      0.103760
     93 N9          5.7420    2.2220   -0.9330 n         1 MOL     -0.191627
     94 C29         5.9090    3.2040    0.1750 c3        1 MOL     -0.342715
     95 C30         4.6230    3.9940    0.5080 c         1 MOL      0.563916
     96 O16         4.6060    4.7930    1.4420 o         1 MOL     -0.566330
     97 C31         7.2460    3.9280    0.0190 c3        1 MOL      0.161579
     98 C32         7.0840    5.0280   -1.0520 c3        1 MOL     -0.032131
     99 C33         8.3830    2.8420   -0.1050 c3        1 MOL     -0.045934
    100 C34         8.4380    5.7620   -1.1840 c3        1 MOL     -0.097154
    101 H42         5.9040    2.5460   -1.8730 hn        1 MOL      0.220654
    102 H43         6.0010    2.5440    1.0420 h1        1 MOL      0.177339
    103 H44         7.5440    4.3650    0.9770 hc        1 MOL      0.058333
    104 H45         6.3550    5.7370   -0.6520 hc        1 MOL      0.007253
    105 H46         6.7120    4.7210   -2.0330 hc        1 MOL      0.007253
    106 H47         9.2980    3.3720    0.1740 hc        1 MOL      0.014104
    107 H48         8.2390    2.0390    0.6170 hc        1 MOL      0.014104
    108 H49         8.4350    2.3720   -1.0910 hc        1 MOL      0.014104
    109 H50         8.7270    6.1850   -0.2210 hc        1 MOL      0.022556
    110 H51         9.3250    5.1760   -1.4450 hc        1 MOL      0.022556
    111 H52         8.4180    6.5020   -1.9840 hc        1 MOL      0.022556
    112 N10         3.6440    3.8340   -0.3270 n         1 MOL     -0.289252
    113 C35         2.4140    4.6290   -0.2450 c3        1 MOL      0.041071
    114 C36         1.1800    3.7810   -0.3930 c         1 MOL      0.490957
    115 O17         1.2020    2.7180   -1.0760 o         1 MOL     -0.498828
    116 C37         2.3080    5.8560   -1.1830 c3        1 MOL      0.415558
    117 C38         3.5950    6.6860   -1.2290 c3        1 MOL     -0.284206
    118 O18         1.3490    6.6690   -0.6580 oh        1 MOL     -0.658021
    119 H53         3.7610    3.2620   -1.1480 hn        1 MOL      0.196252
    120 H54         2.3000    5.1680    0.7070 h1        1 MOL      0.086475
    121 H55         2.0920    5.5890   -2.2260 h1        1 MOL     -0.026311
    122 H56         1.1340    7.2970   -1.3450 ho        1 MOL      0.404620
    123 H57         3.8630    7.0710   -0.2470 hc        1 MOL      0.070905
    124 H58         4.3370    5.9660   -1.5850 hc        1 MOL      0.070905
    125 H59         3.5010    7.4820   -1.9630 hc        1 MOL      0.070905
    126 N11         0.0750    4.1290    0.2870 n         1 MOL     -0.577193
    127 C39        -1.1900    3.3160    0.3850 c3        1 MOL      0.029650
    128 C40        -1.9260    3.1100   -1.0270 c         1 MOL      0.546548
    129 O19        -1.8250    3.9970   -1.8760 o         1 MOL     -0.567944
    130 C41        -2.1290    3.8600    1.4590 c3        1 MOL      0.011739
    131 C42        -2.7190    5.2220    1.0820 c3        1 MOL     -0.327875
    132 O20        -1.5040    4.0160    2.7450 oh        1 MOL     -0.566921
    133 H60         0.0200    5.0350    0.7160 hn        1 MOL      0.329297
    134 H61        -0.8390    2.3210    0.6440 h1        1 MOL      0.231624
    135 H62        -2.9730    3.1920    1.6060 h1        1 MOL      0.201467
    136 H63        -0.8960    4.7540    2.7380 ho        1 MOL      0.410829
    137 H64        -2.0610    6.0240    0.7900 hc        1 MOL      0.099545
    138 H65        -3.4910    5.1290    0.3170 hc        1 MOL      0.099545
    139 H66        -3.1970    5.5520    2.0020 hc        1 MOL      0.099545
    140 N12        -2.6910    2.0620   -1.1060 n         1 MOL     -0.064183
    141 C43        -3.7890    1.8920   -2.1390 c3        1 MOL      0.021493
    142 C44        -4.1320    0.4170   -2.3940 c         1 MOL      0.665569
    143 O21        -4.5160    0.0960   -3.5160 o         1 MOL     -0.649357
    144 C45        -5.0240    2.7100   -1.6740 c3        1 MOL      0.104652
    145 C46        -6.3090    2.9040   -2.5400 c3        1 MOL      0.010524
    146 C47        -6.0560    3.1280   -4.0300 c3        1 MOL     -0.084334
    147 C48        -5.3820    4.5030   -4.2880 c3        1 MOL      0.175658
    148 N13        -5.4480    4.9620   -5.7100 n4        1 MOL     -0.378516
    149 H67        -2.5850    1.3130   -0.4420 hn        1 MOL     -0.380872
    150 H68        -3.3650    2.3780   -3.0230 h1        1 MOL      0.034073
    151 H69        -4.6230    3.6810   -1.3970 hc        1 MOL     -0.038659
    152 H70        -5.4390    2.2150   -0.7970 hc        1 MOL     -0.038659
    153 H71        -6.8300    3.7840   -2.1790 hc        1 MOL      0.024567
    154 H72        -6.9500    2.0230   -2.4620 hc        1 MOL      0.024567
    155 H73        -6.9980    3.1780   -4.5560 hc        1 MOL      0.021748
    156 H74        -5.3570    2.3530   -4.3600 hc        1 MOL      0.021748
    157 H75        -4.3790    4.5140   -3.8720 hx        1 MOL      0.044264
    158 H76        -5.8240    5.2410   -3.6260 hx        1 MOL      0.044264
    159 H77        -6.3720    5.3440   -5.8540 hn        1 MOL      0.307035
    160 H78        -4.7380    5.6490   -5.8840 hn        1 MOL      0.307035
    161 H79        -5.4380    4.2550   -6.4350 hn        1 MOL      0.307035
    162 N14        -3.9160   -0.4730   -1.4340 n         1 MOL      0.002576
    163 C49        -4.4100   -1.8040   -1.4970 c3        1 MOL     -0.388539
    164 C50        -5.9930   -1.8930   -1.5200 c         1 MOL      0.508066
    165 O22        -6.6070   -1.2920   -0.6850 o         1 MOL     -0.519682
    166 C51        -3.9020   -2.7630   -0.4370 c3        1 MOL      0.939226
    167 C52        -4.3710   -4.2230   -0.4860 c3        1 MOL     -0.732106
    168 C53        -4.0220   -4.8080   -1.8520 c         1 MOL      0.965163
    169 O23        -4.9740   -4.9790   -2.6820 o         1 MOL     -0.833449
    170 O24        -2.8770   -5.2150   -2.0810 o         1 MOL     -0.833449
    171 H80        -3.5100   -0.1590   -0.5620 hn        1 MOL     -0.022281
    172 H81        -4.2050   -2.2180   -2.4960 h1        1 MOL      0.063399
    173 H82        -4.1580   -2.4020    0.5590 hc        1 MOL     -0.259967
    174 H83        -2.8170   -2.7810   -0.5100 hc        1 MOL     -0.259967
    175 H84        -5.4320   -4.2370   -0.2560 hc        1 MOL      0.198967
    176 H85        -3.8560   -4.7510    0.3240 hc        1 MOL      0.198967
    177 N15        -6.6640   -2.5370   -2.4800 n         1 MOL     -0.323911
    178 C54        -8.1970   -2.6510   -2.5200 c3        1 MOL     -0.289256
    179 H86        -8.4790   -3.5510   -3.0670 h1        1 MOL      0.129565
    180 H87        -8.5840   -2.7090   -1.5030 h1        1 MOL      0.129565
    181 H88        -8.6140   -1.7770   -3.0200 h1        1 MOL      0.129565
    182 H89        -6.1050   -3.0480   -3.1500 hn        1 MOL      0.359638
    183 Ca1        -0.4230   -4.6160   -2.9000 Ca        1 MOL      1.660219
    184 O25         1.1600   -4.0010   -5.1120 oh        1 MOL     -0.867870
    185 H90         1.1120   -3.1100   -5.4710 ho        1 MOL      0.429423
    186 H91         1.6400   -4.4970   -5.7720 ho        1 MOL      0.429423
    187 O26        -1.9690   -2.5700   -3.8660 oh        1 MOL     -0.867870
    188 H92        -1.5870   -1.8090   -3.4190 ho        1 MOL      0.429423
    189 H93        -2.3430   -2.2040   -4.6720 ho        1 MOL      0.429423
    190 O27        -1.9030   -5.4060   -4.9650 oh        1 MOL     -0.867870
    191 H94        -2.8450   -5.2270   -5.0570 ho        1 MOL      0.429423
    192 H95        -1.8530   -6.3580   -4.8860 ho        1 MOL      0.429423
@<TRIPOS>BOND
     1    1    2 1   
     2    1    4 1   
     3    1    5 1   
     4    1    6 1   
     5    2    3 2   
     6    2    7 1   
     7    7    8 1   
     8    7   15 1   
     9    8    9 1   
    10    8   11 1   
    11    8   16 1   
    12    9   10 2   
    13    9   19 1   
    14   11   12 1   
    15   11   17 1   
    16   11   18 1   
    17   12   13 1   
    18   12   14 1   
    19   19   20 1   
    20   19   28 1   
    21   20   21 1   
    22   20   23 1   
    23   20   29 1   
    24   21   22 2   
    25   21   41 1   
    26   23   24 1   
    27   23   30 1   
    28   23   31 1   
    29   24   25 1   
    30   24   32 1   
    31   24   33 1   
    32   25   26 1   
    33   25   34 1   
    34   25   35 1   
    35   26   27 1   
    36   26   36 1   
    37   26   37 1   
    38   27   38 1   
    39   27   39 1   
    40   27   40 1   
    41   41   42 1   
    42   41   49 1   
    43   42   43 1   
    44   42   45 1   
    45   42   50 1   
    46   43   44 2   
    47   43   53 1   
    48   45   46 1   
    49   45   51 1   
    50   45   52 1   
    51   46   47 1   
    52   46   48 1   
    53   53   54 1   
    54   53   57 1   
    55   54   55 1   
    56   54   58 1   
    57   54   59 1   
    58   55   56 2   
    59   55   60 1   
    60   60   61 1   
    61   60   68 1   
    62   61   62 1   
    63   61   64 1   
    64   61   69 1   
    65   62   63 2   
    66   62   72 1   
    67   64   65 1   
    68   64   70 1   
    69   64   71 1   
    70   65   66 1   
    71   65   67 1   
    72   72   73 1   
    73   72   76 1   
    74   73   74 1   
    75   73   77 1   
    76   73   78 1   
    77   74   75 2   
    78   74   79 1   
    79   79   80 1   
    80   79   86 1   
    81   80   81 1   
    82   80   83 1   
    83   80   87 1   
    84   81   82 2   
    85   81   93 1   
    86   83   84 1   
    87   83   85 1   
    88   83   88 1   
    89   84   90 1   
    90   84   91 1   
    91   84   92 1   
    92   85   89 1   
    93   93   94 1   
    94   93  101 1   
    95   94   95 1   
    96   94   97 1   
    97   94  102 1   
    98   95   96 2   
    99   95  112 1   
   100   97   98 1   
   101   97   99 1   
   102   97  103 1   
   103   98  100 1   
   104   98  104 1   
   105   98  105 1   
   106   99  106 1   
   107   99  107 1   
   108   99  108 1   
   109  100  109 1   
   110  100  110 1   
   111  100  111 1   
   112  112  113 1   
   113  112  119 1   
   114  113  114 1   
   115  113  116 1   
   116  113  120 1   
   117  114  115 2   
   118  114  126 1   
   119  116  117 1   
   120  116  118 1   
   121  116  121 1   
   122  117  123 1   
   123  117  124 1   
   124  117  125 1   
   125  118  122 1   
   126  126  127 1   
   127  126  133 1   
   128  127  128 1   
   129  127  130 1   
   130  127  134 1   
   131  128  129 2   
   132  128  140 1   
   133  130  131 1   
   134  130  132 1   
   135  130  135 1   
   136  131  137 1   
   137  131  138 1   
   138  131  139 1   
   139  132  136 1   
   140  140  141 1   
   141  140  149 1   
   142  141  142 1   
   143  141  144 1   
   144  141  150 1   
   145  142  143 2   
   146  142  162 1   
   147  144  145 1   
   148  144  151 1   
   149  144  152 1   
   150  145  146 1   
   151  145  153 1   
   152  145  154 1   
   153  146  147 1   
   154  146  155 1   
   155  146  156 1   
   156  147  148 1   
   157  147  157 1   
   158  147  158 1   
   159  148  159 1   
   160  148  160 1   
   161  148  161 1   
   162  162  163 1   
   163  162  171 1   
   164  163  164 1   
   165  163  166 1   
   166  163  172 1   
   167  164  165 2   
   168  164  177 1   
   169  166  167 1   
   170  166  173 1   
   171  166  174 1   
   172  167  168 1   
   173  167  175 1   
   174  167  176 1   
   175  168  169 1   
   176  168  170 1   
   177  177  178 1   
   178  177  182 1   
   179  178  179 1   
   180  178  180 1   
   181  178  181 1   
   182  184  185 1   
   183  184  186 1   
   184  187  188 1   
   185  187  189 1   
   186  190  191 1   
   187  190  192 1   
@<TRIPOS>SUBSTRUCTURE
     1 MOL         1 TEMP              0 ****  ****    0 ROOT
