@<TRIPOS>MOLECULE
MOL
  182   178     1     0     0
SMALL
resp


@<TRIPOS>ATOM
      1 C1          1.0070   -4.3850    6.5330 c3        1 MOL     -0.445329
      2 C2          0.9040   -4.1180    5.0120 c         1 MOL      0.718926
      3 O1         -0.1560   -4.1680    4.3410 o         1 MOL     -0.635327
      4 H1          0.7910   -5.4350    6.7330 hc        1 MOL      0.124282
      5 H2          2.0150   -4.1500    6.8760 hc        1 MOL      0.124282
      6 H3          0.2880   -3.7590    7.0620 hc        1 MOL      0.124282
      7 N1          2.0380   -3.8440    4.4250 n         1 MOL     -0.514531
      8 C3          2.1130   -3.2800    3.0370 c3        1 MOL     -0.123572
      9 C4          2.4150   -4.4350    2.0880 c         1 MOL      0.588220
     10 O2          3.5320   -4.9610    2.1590 o         1 MOL     -0.512008
     11 C5          3.0460   -2.0940    2.8670 c3        1 MOL      0.092207
     12 C6          3.0300   -1.3800    1.4890 c         1 MOL      0.238878
     13 O3          3.6160   -0.2720    1.3300 o         1 MOL     -0.542882
     14 O4          2.3920   -1.9160    0.5410 o         1 MOL     -0.542882
     15 H4          2.8410   -3.7870    5.0280 hn        1 MOL      0.305783
     16 H5          1.1280   -2.9000    2.7730 h1        1 MOL      0.143908
     17 H6          4.1030   -2.3110    3.0160 hc        1 MOL      0.039537
     18 H7          2.8990   -1.3740    3.6660 hc        1 MOL      0.039537
     19 N2          1.5320   -4.6600    1.0680 n         1 MOL     -0.358848
     20 C7          1.5730   -5.5910   -0.0720 c3        1 MOL     -0.052883
     21 C8          2.7440   -5.4340   -0.8890 c         1 MOL      0.472176
     22 O5          3.2920   -6.4060   -1.4700 o         1 MOL     -0.600477
     23 C9          0.2350   -5.4260   -0.9220 c3        1 MOL     -0.115193
     24 C10         0.1920   -6.3050   -2.1530 c3        1 MOL      0.054033
     25 C11        -1.1540   -6.0890   -2.9230 c3        1 MOL     -0.052851
     26 C12        -1.1950   -6.8410   -4.2600 c3        1 MOL      0.001705
     27 N3         -1.5060   -8.2520   -3.9870 n4        1 MOL     -0.277784
     28 H8          0.7030   -4.0890    1.0900 hn        1 MOL      0.219925
     29 H9          1.6160   -6.5890    0.3620 h1        1 MOL      0.124068
     30 H10         0.2050   -4.4180   -1.3370 hc        1 MOL      0.065142
     31 H11        -0.6740   -5.6320   -0.3680 hc        1 MOL      0.065142
     32 H12         0.2750   -7.3580   -1.8890 hc        1 MOL      0.013772
     33 H13         1.0280   -6.1000   -2.8160 hc        1 MOL      0.013772
     34 H14        -1.4000   -5.0400   -3.0740 hc        1 MOL      0.033026
     35 H15        -1.9020   -6.4600   -2.2180 hc        1 MOL      0.033026
     36 H16        -0.2380   -6.7440   -4.7680 hx        1 MOL      0.093075
     37 H17        -1.9380   -6.4620   -4.9690 hx        1 MOL      0.093075
     38 H18        -1.6330   -8.7330   -4.8610 hn        1 MOL      0.258760
     39 H19        -0.7370   -8.6600   -3.4710 hn        1 MOL      0.258760
     40 H20        -2.3830   -8.3100   -3.4950 hn        1 MOL      0.258760
     41 N4          3.3510   -4.2420   -0.9590 n         1 MOL      0.006966
     42 C13         4.5640   -3.9890   -1.7520 c3        1 MOL     -0.209173
     43 C14         5.7020   -3.2370   -1.0370 c         1 MOL      0.394959
     44 O6          6.7190   -3.0060   -1.6560 o         1 MOL     -0.490453
     45 C15         4.2220   -3.2680   -3.0290 c3        1 MOL     -0.239862
     46 C16         3.7120   -1.8480   -3.0330 c         1 MOL      0.604483
     47 O7          3.7540   -1.1260   -1.9710 o         1 MOL     -0.658903
     48 O8          3.2430   -1.4460   -4.1300 o         1 MOL     -0.658903
     49 H21         2.8090   -3.5120   -0.5170 hn        1 MOL      0.054567
     50 H22         4.9810   -4.9250   -2.1220 h1        1 MOL      0.181896
     51 H23         3.6070   -3.9100   -3.6690 hc        1 MOL      0.105845
     52 H24         5.1490   -3.1460   -3.5980 hc        1 MOL      0.105845
     53 N5          5.5220   -2.8950    0.2680 n         1 MOL     -0.012603
     54 C17         6.5500   -2.2300    1.1170 c3        1 MOL     -0.070465
     55 C18         6.9280   -0.8980    0.6360 c         1 MOL      0.549561
     56 O9          8.0400   -0.5270    0.9930 o         1 MOL     -0.577836
     57 H25         4.6710   -3.2020    0.7060 hn        1 MOL      0.034365
     58 H26         7.4030   -2.8920    1.2770 h1        1 MOL      0.082194
     59 H27         6.0660   -2.0230    2.0690 h1        1 MOL      0.082194
     60 N6          6.2100   -0.1860   -0.2090 n         1 MOL     -0.039343
     61 C19         6.6470    1.0180   -0.9390 c3        1 MOL     -0.019731
     62 C20         5.4760    1.9640   -1.1070 c         1 MOL      0.655530
     63 O10         4.3240    1.6920   -0.8510 o         1 MOL     -0.521830
     64 C21         7.1460    0.5870   -2.3680 c3        1 MOL     -0.537312
     65 C22         8.5920    0.0930   -2.2910 c         1 MOL      0.836457
     66 N7          8.8330   -1.1880   -2.4100 n         1 MOL     -0.906012
     67 O11         9.5160    0.8700   -2.2240 o         1 MOL     -0.610119
     68 H28         5.2880   -0.5590   -0.4080 hn        1 MOL     -0.184537
     69 H29         7.4610    1.4790   -0.3850 h1        1 MOL      0.084707
     70 H30         7.1300    1.4570   -3.0120 hc        1 MOL      0.166158
     71 H31         6.4930   -0.1870   -2.7850 hc        1 MOL      0.166158
     72 H32         8.0180   -1.7660   -2.2300 hn        1 MOL      0.402955
     73 H33         9.7670   -1.5610   -2.4250 hn        1 MOL      0.402955
     74 N8          5.7650    3.1660   -1.4920 n         1 MOL     -0.457514
     75 C23         4.8910    4.2980   -1.7530 c3        1 MOL      0.061158
     76 C24         3.9950    4.6500   -0.5820 c         1 MOL      0.433139
     77 O12         4.4040    4.6220    0.5940 o         1 MOL     -0.489647
     78 H34         6.7470    3.3420   -1.6460 hn        1 MOL      0.303285
     79 H35         4.1900    4.0470   -2.5610 h1        1 MOL      0.041187
     80 H36         5.3230    5.2150   -2.1610 h1        1 MOL      0.041187
     81 N9          2.7480    4.9280   -0.8660 n         1 MOL     -0.300046
     82 C25         1.7210    5.0070    0.2280 c3        1 MOL     -0.217960
     83 C26         1.4490    3.6740    0.9080 c         1 MOL      0.691400
     84 O13         1.9500    2.6540    0.4820 o         1 MOL     -0.555784
     85 C27         0.4760    5.6170   -0.3420 c3        1 MOL     -0.037762
     86 C28         0.7560    7.0870   -0.8230 ca        1 MOL     -0.022386
     87 C29         0.6370    7.3710   -2.1620 ca        1 MOL     -0.081643
     88 C30         1.2950    8.0140    0.0700 ca        1 MOL     -0.081643
     89 C31         1.0000    8.6540   -2.5640 ca        1 MOL     -0.320870
     90 C32         1.4680    9.3800   -0.3470 ca        1 MOL     -0.320870
     91 C33         1.3430    9.6990   -1.6750 ca        1 MOL      0.412532
     92 O14         1.5420   10.9170   -2.1530 oh        1 MOL     -0.476023
     93 H37         2.4120    5.0440   -1.8130 hn        1 MOL      0.240210
     94 H38         1.9450    5.6930    1.0400 h1        1 MOL      0.133309
     95 H39        -0.2970    5.6810    0.4250 hc        1 MOL      0.028962
     96 H40        -0.0150    4.9590   -1.0560 hc        1 MOL      0.028962
     97 H41         0.3870    6.6160   -2.9030 ha        1 MOL      0.119431
     98 H42         1.4710    7.6740    1.0740 ha        1 MOL      0.119431
     99 H43         0.8400    8.9280   -3.6040 ha        1 MOL      0.159253
    100 H44         1.7940   10.0560    0.4350 ha        1 MOL      0.159253
    101 H45         1.8030   11.4710   -1.4070 ho        1 MOL      0.372999
    102 N10         0.5600    3.6150    1.8440 n         1 MOL     -0.512498
    103 C34         0.2300    2.5770    2.8030 c3        1 MOL      0.056653
    104 C35        -0.2630    1.2750    2.2390 c         1 MOL      0.479009
    105 O15         0.4910    0.6690    1.4500 o         1 MOL     -0.562670
    106 C36         1.3430    2.3280    3.8120 c3        1 MOL      0.462516
    107 C37         1.0860    1.4610    5.0150 c3        1 MOL     -0.347664
    108 C38         1.9720    3.6160    4.3310 c3        1 MOL     -0.149142
    109 C39        -0.0030    2.0310    5.9800 c3        1 MOL     -0.299661
    110 H46         0.1380    4.5230    1.9320 hn        1 MOL      0.282216
    111 H47        -0.6260    2.9500    3.3710 h1        1 MOL      0.012119
    112 H48         2.1530    1.8340    3.2820 hc        1 MOL     -0.044417
    113 H49         1.9920    1.3740    5.6130 hc        1 MOL      0.119111
    114 H50         0.8470    0.4350    4.7400 hc        1 MOL      0.119111
    115 H51         2.9240    3.2860    4.7590 hc        1 MOL      0.025361
    116 H52         2.0820    4.3550    3.5260 hc        1 MOL      0.025361
    117 H53         1.2880    4.1350    4.9980 hc        1 MOL      0.025361
    118 H54        -0.1380    1.2510    6.7340 hc        1 MOL      0.083125
    119 H55         0.3160    2.9040    6.5480 hc        1 MOL      0.083125
    120 H56        -0.9580    2.1890    5.4720 hc        1 MOL      0.083125
    121 N11        -1.3760    0.8080    2.7740 n         1 MOL     -0.469114
    122 C40        -1.8480   -0.5450    2.4530 c3        1 MOL      0.147272
    123 C41        -3.1890   -0.6600    1.6820 c         1 MOL      0.389474
    124 O16        -3.5750   -1.8530    1.5030 o         1 MOL     -0.524177
    125 C42        -1.9920   -1.3250    3.7260 c3        1 MOL      0.146153
    126 O17        -3.0300   -0.7130    4.4930 oh        1 MOL     -0.587761
    127 H57        -1.9140    1.3210    3.4680 hn        1 MOL      0.324775
    128 H58        -1.1310   -1.1580    1.9090 h1        1 MOL      0.018898
    129 H59        -1.0530   -1.3520    4.2710 h1        1 MOL      0.052655
    130 H60        -2.2480   -2.3420    3.4410 h1        1 MOL      0.052655
    131 H61        -3.0140   -1.2830    5.2700 ho        1 MOL      0.389845
    132 N12        -3.7330    0.4780    1.2930 n         1 MOL     -0.345056
    133 C43        -4.9870    0.5440    0.5130 c3        1 MOL      0.095435
    134 C44        -4.6970    0.1030   -0.9340 c         1 MOL      0.736260
    135 O18        -3.6620    0.3160   -1.5330 o         1 MOL     -0.629313
    136 C45        -5.6260    1.9000    0.6350 c3        1 MOL     -0.111164
    137 H62        -3.1470    1.2830    1.4610 hn        1 MOL      0.225520
    138 H63        -5.6360   -0.1880    0.9830 h1        1 MOL      0.129492
    139 H64        -4.9150    2.5680    0.1560 hc        1 MOL      0.035583
    140 H65        -6.5600    1.8420    0.0830 hc        1 MOL      0.035583
    141 H66        -5.6830    2.0370    1.7160 hc        1 MOL      0.035583
    142 N13        -5.5720   -0.6570   -1.5730 n         1 MOL     -0.786465
    143 C46        -7.0350   -0.8170   -1.2860 c3        1 MOL      0.473873
    144 C47        -7.8680    0.1190   -2.1400 c         1 MOL      0.553298
    145 O19        -7.4660    0.4850   -3.2810 o         1 MOL     -0.558268
    146 C48        -7.3920   -2.3510   -1.4480 c3        1 MOL     -0.484866
    147 H67        -5.2640   -1.1300   -2.4000 hn        1 MOL      0.387706
    148 H68        -7.2800   -0.4460   -0.2970 h1        1 MOL     -0.120836
    149 H69        -8.4810   -2.3900   -1.3770 hc        1 MOL      0.144103
    150 H70        -7.0430   -2.6440   -2.4390 hc        1 MOL      0.144103
    151 H71        -7.0100   -2.9540   -0.6280 hc        1 MOL      0.144103
    152 N14        -9.1280    0.4220   -1.7190 n         1 MOL     -0.672086
    153 C49        -9.7200    0.1710   -0.4090 c3        1 MOL     -0.063434
    154 C50        -9.3360    1.2410    0.6570 c         1 MOL      0.580451
    155 O20        -8.8410    0.8540    1.7100 o         1 MOL     -0.540832
    156 C51       -11.2540    0.1070   -0.6120 c3        1 MOL      0.024595
    157 C52       -11.6760   -0.9420   -1.6310 c3        1 MOL     -0.121520
    158 C53       -13.1920   -1.2860   -1.5160 c         1 MOL      0.674453
    159 O21       -13.6670   -1.9940   -0.5870 o         1 MOL     -0.645198
    160 O22       -13.9550   -0.9260   -2.4430 o         1 MOL     -0.645198
    161 H72        -9.6800    0.8970   -2.4180 hn        1 MOL      0.390531
    162 H73        -9.4490   -0.8110   -0.0350 h1        1 MOL      0.136460
    163 H74       -11.5860    1.0390   -1.0630 hc        1 MOL      0.012850
    164 H75       -11.7250   -0.0350    0.3680 hc        1 MOL      0.012850
    165 H76       -11.1450   -1.8900   -1.5810 hc        1 MOL      0.012999
    166 H77       -11.4590   -0.5370   -2.6210 hc        1 MOL      0.012999
    167 N15        -9.4820    2.5110    0.3920 n         1 MOL     -0.377006
    168 C54        -9.1110    3.6680    1.2540 c3        1 MOL     -0.147930
    169 H78        -9.0620    4.5710    0.6470 h1        1 MOL      0.097395
    170 H79        -9.8610    3.7950    2.0350 h1        1 MOL      0.097395
    171 H80        -8.1380    3.4840    1.7110 h1        1 MOL      0.097395
    172 H81        -9.8560    2.7630   -0.5110 hn        1 MOL      0.284222
    173 Ca1         2.0230    0.2980   -0.8720 Ca        1 MOL      1.865354
    174 O23         1.9640    1.8280   -3.1520 oh        1 MOL     -0.901319
    175 H82         2.3630    2.6920   -3.1860 ho        1 MOL      0.440662
    176 H83         1.3400    1.8220   -3.8850 ho        1 MOL      0.440662
    177 O24         0.2140   -1.5530   -1.2320 oh        1 MOL     -0.901319
    178 H84        -0.4530   -1.7450   -1.8890 ho        1 MOL      0.440662
    179 H85         0.0480   -2.1730   -0.5280 ho        1 MOL      0.440662
    180 O25        -0.3750    1.2850   -1.5640 oh        1 MOL     -0.901319
    181 H86        -0.6850    0.9650   -2.4060 ho        1 MOL      0.440662
    182 H87        -1.1660    1.6010   -1.1200 ho        1 MOL      0.440662
@<TRIPOS>BOND
     1    1    2 1   
     2    1    4 1   
     3    1    5 1   
     4    1    6 1   
     5    2    3 2   
     6    2    7 1   
     7    7    8 1   
     8    7   15 1   
     9    8    9 1   
    10    8   11 1   
    11    8   16 1   
    12    9   10 2   
    13    9   19 1   
    14   11   12 1   
    15   11   17 1   
    16   11   18 1   
    17   12   13 1   
    18   12   14 1   
    19   19   20 1   
    20   19   28 1   
    21   20   21 1   
    22   20   23 1   
    23   20   29 1   
    24   21   22 2   
    25   21   41 1   
    26   23   24 1   
    27   23   30 1   
    28   23   31 1   
    29   24   25 1   
    30   24   32 1   
    31   24   33 1   
    32   25   26 1   
    33   25   34 1   
    34   25   35 1   
    35   26   27 1   
    36   26   36 1   
    37   26   37 1   
    38   27   38 1   
    39   27   39 1   
    40   27   40 1   
    41   41   42 1   
    42   41   49 1   
    43   42   43 1   
    44   42   45 1   
    45   42   50 1   
    46   43   44 2   
    47   43   53 1   
    48   45   46 1   
    49   45   51 1   
    50   45   52 1   
    51   46   47 1   
    52   46   48 1   
    53   53   54 1   
    54   53   57 1   
    55   54   55 1   
    56   54   58 1   
    57   54   59 1   
    58   55   56 2   
    59   55   60 1   
    60   60   61 1   
    61   60   68 1   
    62   61   62 1   
    63   61   64 1   
    64   61   69 1   
    65   62   63 2   
    66   62   74 1   
    67   64   65 1   
    68   64   70 1   
    69   64   71 1   
    70   65   66 1   
    71   65   67 2   
    72   66   72 1   
    73   66   73 1   
    74   74   75 1   
    75   74   78 1   
    76   75   76 1   
    77   75   79 1   
    78   75   80 1   
    79   76   77 2   
    80   76   81 1   
    81   81   82 1   
    82   81   93 1   
    83   82   83 1   
    84   82   85 1   
    85   82   94 1   
    86   83   84 2   
    87   83  102 1   
    88   85   86 1   
    89   85   95 1   
    90   85   96 1   
    91   86   87 ar  
    92   86   88 ar  
    93   87   89 ar  
    94   87   97 1   
    95   88   90 ar  
    96   88   98 1   
    97   89   91 ar  
    98   89   99 1   
    99   90   91 ar  
   100   90  100 1   
   101   91   92 1   
   102   92  101 1   
   103  102  103 1   
   104  102  110 1   
   105  103  104 1   
   106  103  106 1   
   107  103  111 1   
   108  104  105 2   
   109  104  121 1   
   110  106  107 1   
   111  106  108 1   
   112  106  112 1   
   113  107  109 1   
   114  107  113 1   
   115  107  114 1   
   116  108  115 1   
   117  108  116 1   
   118  108  117 1   
   119  109  118 1   
   120  109  119 1   
   121  109  120 1   
   122  121  122 1   
   123  121  127 1   
   124  122  123 1   
   125  122  125 1   
   126  122  128 1   
   127  123  124 2   
   128  123  132 1   
   129  125  126 1   
   130  125  129 1   
   131  125  130 1   
   132  126  131 1   
   133  132  133 1   
   134  132  137 1   
   135  133  134 1   
   136  133  136 1   
   137  133  138 1   
   138  134  135 2   
   139  134  142 1   
   140  136  139 1   
   141  136  140 1   
   142  136  141 1   
   143  142  143 1   
   144  142  147 1   
   145  143  144 1   
   146  143  146 1   
   147  143  148 1   
   148  144  145 2   
   149  144  152 1   
   150  146  149 1   
   151  146  150 1   
   152  146  151 1   
   153  152  153 1   
   154  152  161 1   
   155  153  154 1   
   156  153  156 1   
   157  153  162 1   
   158  154  155 2   
   159  154  167 1   
   160  156  157 1   
   161  156  163 1   
   162  156  164 1   
   163  157  158 1   
   164  157  165 1   
   165  157  166 1   
   166  158  159 1   
   167  158  160 1   
   168  167  168 1   
   169  167  172 1   
   170  168  169 1   
   171  168  170 1   
   172  168  171 1   
   173  174  175 1   
   174  174  176 1   
   175  177  178 1   
   176  177  179 1   
   177  180  181 1   
   178  180  182 1   
@<TRIPOS>SUBSTRUCTURE
     1 MOL         1 TEMP              0 ****  ****    0 ROOT
