@<TRIPOS>MOLECULE
MOL
  181   177     1     0     0
SMALL
resp


@<TRIPOS>ATOM
      1 C1          8.9290    7.5970   -1.4790 c3        1 MOL     -0.331289
      2 C2          8.0050    6.5170   -0.8870 c         1 MOL      0.725440
      3 O1          6.9710    6.8500   -0.3340 o         1 MOL     -0.590998
      4 H1          9.7420    7.1190   -2.0250 hc        1 MOL      0.076396
      5 H2          8.3590    8.2300   -2.1580 hc        1 MOL      0.076396
      6 H3          9.3410    8.2050   -0.6730 hc        1 MOL      0.076396
      7 N1          8.3570    5.2690   -0.9220 n         1 MOL     -0.752472
      8 C3          9.4650    4.6270   -1.6610 c3        1 MOL      0.527890
      9 C4         10.4760    3.9690   -0.7270 c         1 MOL      0.255082
     10 O2         11.6690    3.8480   -1.0720 o         1 MOL     -0.552740
     11 C5          8.9350    3.6310   -2.6990 c3        1 MOL     -0.304238
     12 C6          8.0850    2.4380   -2.2010 c         1 MOL      0.885007
     13 O3          7.8680    1.4700   -2.9270 o         1 MOL     -0.788881
     14 O4          7.6810    2.4800   -0.9920 o         1 MOL     -0.788881
     15 H4          7.8100    4.6610   -0.3480 hn        1 MOL      0.401718
     16 H5          9.9990    5.3750   -2.2400 h1        1 MOL     -0.031795
     17 H6          9.7990    3.2320   -3.2350 hc        1 MOL      0.044913
     18 H7          8.3330    4.1980   -3.4070 hc        1 MOL      0.044913
     19 N2         10.1550    3.6070    0.4870 n         1 MOL     -0.270158
     20 C7         10.9650    3.0880    1.5960 c3        1 MOL      0.302715
     21 C8         10.2960    1.8500    2.3380 c         1 MOL      0.306577
     22 O5         10.6650    1.5690    3.5080 o         1 MOL     -0.533873
     23 C9         11.3040    4.2360    2.5740 c3        1 MOL     -0.276187
     24 H8          9.2530    3.9510    0.7920 hn        1 MOL      0.233675
     25 H9         11.8620    2.7070    1.0960 h1        1 MOL      0.025733
     26 H10        12.0550    3.8310    3.2500 hc        1 MOL      0.069012
     27 H11        11.8390    5.0210    2.0470 hc        1 MOL      0.069012
     28 H12        10.4360    4.7220    3.0300 hc        1 MOL      0.069012
     29 N3          9.4100    1.1670    1.6790 n         1 MOL     -0.124629
     30 C10         8.6900    0.0180    2.1660 c3        1 MOL     -0.208222
     31 C11         8.3710   -1.0490    1.0640 c         1 MOL      0.463774
     32 O6          8.2030   -0.6240   -0.1240 o         1 MOL     -0.563436
     33 C12         7.4430    0.5840    2.8670 c3        1 MOL     -0.153817
     34 C13         6.4170    1.3480    1.9720 c         1 MOL      0.692338
     35 O7          6.0720    2.4500    2.3620 o         1 MOL     -0.679045
     36 O8          6.0110    0.7920    0.9540 o         1 MOL     -0.679045
     37 H13         9.0840    1.5140    0.7840 hn        1 MOL      0.194691
     38 H14         9.2740   -0.4290    2.9680 h1        1 MOL      0.096304
     39 H15         7.9450    1.3110    3.5140 hc        1 MOL      0.065693
     40 H16         6.9190   -0.1420    3.4830 hc        1 MOL      0.065693
     41 N4          8.1780   -2.3340    1.4330 n         1 MOL     -0.204743
     42 C14         7.9290   -3.4110    0.5130 c3        1 MOL     -0.364439
     43 C15         6.5600   -3.3400   -0.1550 c         1 MOL      0.737491
     44 O9          5.8590   -2.3530   -0.1610 o         1 MOL     -0.574494
     45 H17         8.4080   -2.7130    2.3420 hn        1 MOL      0.265389
     46 H18         7.9670   -4.2370    1.2250 h1        1 MOL      0.139911
     47 H19         8.7330   -3.5090   -0.2110 h1        1 MOL      0.139911
     48 N5          6.0480   -4.4940   -0.5630 n         1 MOL     -0.556603
     49 C16         4.7860   -4.5640   -1.3120 c3        1 MOL     -0.017941
     50 C17         3.5900   -4.8110   -0.3600 c         1 MOL      0.890059
     51 O10         3.7130   -5.5610    0.6090 o         1 MOL     -0.578230
     52 C18         4.9110   -5.6460   -2.3950 c3        1 MOL     -0.481665
     53 C19         5.7760   -5.1950   -3.5970 c         1 MOL      0.881269
     54 N6          6.3800   -6.0680   -4.3250 n         1 MOL     -0.810404
     55 O11         5.8940   -4.0510   -3.9490 o         1 MOL     -0.645526
     56 H20         6.6460   -5.3120   -0.5000 hn        1 MOL      0.305681
     57 H21         4.4440   -3.6380   -1.7850 h1        1 MOL      0.094261
     58 H22         3.9080   -5.8320   -2.7660 hc        1 MOL      0.132934
     59 H23         5.1950   -6.5720   -1.9000 hc        1 MOL      0.132934
     60 H24         6.3610   -7.0450   -4.0750 hn        1 MOL      0.372986
     61 H25         6.9550   -5.6970   -5.0760 hn        1 MOL      0.372986
     62 N7          2.4120   -4.1710   -0.5410 n         1 MOL     -0.824031
     63 C20         1.3530   -4.2190    0.4290 c3        1 MOL      0.240090
     64 C21         1.4600   -3.2310    1.5770 c         1 MOL      0.505467
     65 O12         2.3080   -2.3440    1.5870 o         1 MOL     -0.575454
     66 H26         2.2660   -3.5400   -1.3230 hn        1 MOL      0.394860
     67 H27         1.3260   -5.2480    0.7580 h1        1 MOL      0.050887
     68 H28         0.4150   -3.9840   -0.0700 h1        1 MOL      0.050887
     69 N8          0.6280   -3.3220    2.5830 n         1 MOL     -0.223540
     70 C22        -0.4580   -4.1420    2.9980 c3        1 MOL     -0.551366
     71 C23        -1.8070   -3.7980    2.2570 c         1 MOL      0.639861
     72 O13        -2.6250   -4.6600    2.0040 o         1 MOL     -0.531787
     73 C24        -0.6820   -4.1560    4.5400 c3        1 MOL      0.475249
     74 C25         0.4770   -4.9320    5.2750 c3        1 MOL     -0.333346
     75 O14        -0.7080   -2.8970    5.0690 oh        1 MOL     -0.630498
     76 H29         0.7130   -2.5170    3.1860 hn        1 MOL      0.280679
     77 H30        -0.0750   -5.1170    2.7030 h1        1 MOL      0.189683
     78 H31        -1.6080   -4.6650    4.8170 h1        1 MOL      0.024026
     79 H32        -0.4540   -2.8860    5.9970 ho        1 MOL      0.416828
     80 H33         0.2130   -5.0120    6.3240 hc        1 MOL      0.075968
     81 H34         0.5880   -5.9370    4.8630 hc        1 MOL      0.075968
     82 H35         1.4070   -4.3640    5.1680 hc        1 MOL      0.075968
     83 N9         -2.0460   -2.5010    2.0030 n         1 MOL     -0.577305
     84 C26        -3.3490   -2.0180    1.5970 c3        1 MOL      0.370295
     85 C27        -3.2490   -0.9630    0.5700 c         1 MOL      0.587153
     86 O15        -2.1870   -0.3290    0.5090 o         1 MOL     -0.609063
     87 C28        -4.2000   -1.5380    2.8060 c3        1 MOL      0.056523
     88 C29        -3.3900   -0.3650    3.6060 c3        1 MOL      0.107501
     89 C30        -4.6130   -2.6420    3.8160 c3        1 MOL     -0.423949
     90 C31        -3.8450    1.0580    3.2030 c3        1 MOL     -0.184061
     91 H36        -1.4030   -1.7660    2.2770 hn        1 MOL      0.277862
     92 H37        -3.8750   -2.8540    1.1500 h1        1 MOL      0.010600
     93 H38        -5.1200   -1.1320    2.3930 hc        1 MOL      0.025799
     94 H39        -2.3070   -0.4980    3.5490 hc        1 MOL     -0.022762
     95 H40        -3.5720   -0.4770    4.6760 hc        1 MOL     -0.022762
     96 H41        -5.2100   -2.0860    4.5430 hc        1 MOL      0.095832
     97 H42        -5.3310   -3.3990    3.4960 hc        1 MOL      0.095832
     98 H43        -3.8610   -3.1470    4.4230 hc        1 MOL      0.095832
     99 H44        -4.9170    1.0910    3.4190 hc        1 MOL      0.057469
    100 H45        -3.1530    1.7850    3.6190 hc        1 MOL      0.057469
    101 H46        -3.7080    1.0780    2.1200 hc        1 MOL      0.057469
    102 N10        -4.3030   -0.6350   -0.2020 n         1 MOL     -0.459674
    103 C32        -5.6200   -1.3230   -0.2640 c3        1 MOL     -0.128132
    104 C33        -6.8370   -0.3930   -0.5020 c         1 MOL      0.547361
    105 O16        -6.7780    0.7370   -1.0230 o         1 MOL     -0.582592
    106 C34        -5.6320   -2.2190   -1.5140 c3        1 MOL     -0.053025
    107 C35        -4.3590   -2.9020   -1.9250 c         1 MOL      0.675852
    108 O17        -4.0290   -4.0050   -1.4360 o         1 MOL     -0.724127
    109 O18        -3.7040   -2.2740   -2.7660 o         1 MOL     -0.724127
    110 H47        -4.1790    0.2320   -0.7000 hn        1 MOL      0.322604
    111 H48        -5.8070   -1.9810    0.5800 h1        1 MOL      0.083354
    112 H49        -5.9520   -1.7520   -2.4400 hc        1 MOL      0.028561
    113 H50        -6.4170   -2.9550   -1.3920 hc        1 MOL      0.028561
    114 N11        -8.0300   -0.8440   -0.1430 n         1 MOL     -0.526253
    115 C36        -9.3180   -0.2600   -0.5320 c3        1 MOL      0.545247
    116 C37       -10.0750    0.2610    0.6850 c         1 MOL      0.232388
    117 O19        -9.9870   -0.3980    1.7090 o         1 MOL     -0.522870
    118 C38       -10.0950   -1.3600   -1.3140 c3        1 MOL     -0.262474
    119 C39        -9.3900   -2.1530   -2.3120 ca        1 MOL      0.027247
    120 C40        -8.8100   -1.4610   -3.4340 ca        1 MOL     -0.022999
    121 C41        -9.4850   -3.5260   -2.3100 ca        1 MOL     -0.022999
    122 C42        -8.1240   -2.1770   -4.3710 ca        1 MOL     -0.267139
    123 C43        -8.8460   -4.2590   -3.2910 ca        1 MOL     -0.267139
    124 C44        -8.0430   -3.5960   -4.2700 ca        1 MOL     -0.024285
    125 H51        -8.0810   -1.7640    0.2880 hn        1 MOL      0.291329
    126 H52        -9.0980    0.6410   -1.1060 h1        1 MOL     -0.009325
    127 H53       -10.9750   -0.9270   -1.8030 hc        1 MOL      0.038053
    128 H54       -10.4970   -2.0990   -0.6110 hc        1 MOL      0.038053
    129 H55        -8.9230   -0.3870   -3.4490 ha        1 MOL      0.087367
    130 H56        -9.9920   -4.0850   -1.5370 ha        1 MOL      0.087367
    131 H57        -7.5750   -1.6630   -5.1460 ha        1 MOL      0.144992
    132 H58        -8.7680   -5.3410   -3.2360 ha        1 MOL      0.144992
    133 H59        -7.4520   -4.1670   -4.9700 ha        1 MOL      0.108934
    134 N12       -10.9100    1.3090    0.5430 n         1 MOL      0.048579
    135 C45       -11.1190    2.1450   -0.7120 c3        1 MOL     -0.084231
    136 C46        -9.9090    3.1350   -1.0030 c         1 MOL      0.449569
    137 O20        -9.9900    3.6910   -2.0540 o         1 MOL     -0.524369
    138 C47       -12.3690    2.8940   -0.4800 c3        1 MOL      0.022033
    139 C48       -13.1320    2.2830    0.6880 c3        1 MOL     -0.245531
    140 C49       -11.9850    1.6340    1.4670 c3        1 MOL      0.038566
    141 H60       -11.2740    1.5140   -1.5890 h1        1 MOL      0.040783
    142 H61       -12.1210    3.8980   -0.1480 hc        1 MOL      0.045754
    143 H62       -13.0240    3.0370   -1.3390 hc        1 MOL      0.045754
    144 H63       -13.6210    3.1240    1.1770 hc        1 MOL      0.076335
    145 H64       -13.6860    1.4260    0.3070 hc        1 MOL      0.076335
    146 H65       -11.5730    2.3340    2.1910 h1        1 MOL      0.034545
    147 H66       -12.3460    0.6900    1.8770 h1        1 MOL      0.034545
    148 N13        -8.9750    3.3370   -0.0680 n         1 MOL     -0.351592
    149 C50        -7.8560    4.3050   -0.3000 c3        1 MOL      0.127092
    150 C51        -8.1400    5.5890   -1.1970 c         1 MOL      0.401497
    151 O21        -8.7880    6.5560   -0.7650 o         1 MOL     -0.553857
    152 C52        -7.4050    4.7510    1.0700 c3        1 MOL      0.085402
    153 C53        -6.6100    3.5700    1.7160 c3        1 MOL     -0.261896
    154 C54        -6.4470    3.8050    3.2230 c         1 MOL      0.753131
    155 O22        -5.3960    4.4240    3.5720 o         1 MOL     -0.740648
    156 O23        -7.1660    3.2800    4.0600 o         1 MOL     -0.740648
    157 H67        -8.9740    2.8120    0.7970 hn        1 MOL      0.258358
    158 H68        -6.9910    3.8380   -0.7710 h1        1 MOL      0.098647
    159 H69        -8.2410    5.0350    1.7200 hc        1 MOL     -0.006568
    160 H70        -6.7780    5.6360    1.0530 hc        1 MOL     -0.006568
    161 H71        -5.6140    3.6000    1.2800 hc        1 MOL      0.021173
    162 H72        -7.1720    2.6500    1.5670 hc        1 MOL      0.021173
    163 N14        -7.5450    5.6690   -2.3980 n         1 MOL     -0.342179
    164 C55        -6.6760    4.6990   -3.1980 c3        1 MOL     -0.189772
    165 H73        -6.0390    4.1350   -2.5160 h1        1 MOL      0.104416
    166 H74        -7.3140    4.0090   -3.7510 h1        1 MOL      0.104416
    167 H75        -6.0540    5.2590   -3.8970 h1        1 MOL      0.104416
    168 H76        -7.7860    6.5370   -2.8480 hn        1 MOL      0.264594
    169 Ca1         6.0500    0.0910   -1.4960 Ca        1 MOL      1.715650
    170 O24         3.3760   -0.7360   -1.2690 oh        1 MOL     -0.841223
    171 H77         3.3590   -0.7810   -0.3080 ho        1 MOL      0.419038
    172 H78         2.4930   -0.9750   -1.5420 ho        1 MOL      0.419038
    173 O25         5.1730   -0.0280   -3.9930 oh        1 MOL     -0.841223
    174 H79         4.7820   -0.8210   -4.3590 ho        1 MOL      0.419038
    175 H80         5.0790    0.6310   -4.6860 ho        1 MOL      0.419038
    176 O26         4.1990    2.0200   -1.9970 oh        1 MOL     -0.841223
    177 H81         3.3440    1.7360   -2.3340 ho        1 MOL      0.419038
    178 H82         4.0070    2.8270   -1.5220 ho        1 MOL      0.419038
    179 O27         6.8420   -1.8980   -2.8940 oh        1 MOL     -0.841223
    180 H83         7.2340   -1.5430   -3.6870 ho        1 MOL      0.419038
    181 H84         6.4710   -2.7450   -3.1620 ho        1 MOL      0.419038
@<TRIPOS>BOND
     1    1    2 1   
     2    1    4 1   
     3    1    5 1   
     4    1    6 1   
     5    2    3 2   
     6    2    7 1   
     7    7    8 1   
     8    7   15 1   
     9    8    9 1   
    10    8   11 1   
    11    8   16 1   
    12    9   10 2   
    13    9   19 1   
    14   11   12 1   
    15   11   17 1   
    16   11   18 1   
    17   12   13 1   
    18   12   14 1   
    19   19   20 1   
    20   19   24 1   
    21   20   21 1   
    22   20   23 1   
    23   20   25 1   
    24   21   22 2   
    25   21   29 1   
    26   23   26 1   
    27   23   27 1   
    28   23   28 1   
    29   29   30 1   
    30   29   37 1   
    31   30   31 1   
    32   30   33 1   
    33   30   38 1   
    34   31   32 2   
    35   31   41 1   
    36   33   34 1   
    37   33   39 1   
    38   33   40 1   
    39   34   35 1   
    40   34   36 1   
    41   41   42 1   
    42   41   45 1   
    43   42   43 1   
    44   42   46 1   
    45   42   47 1   
    46   43   44 2   
    47   43   48 1   
    48   48   49 1   
    49   48   56 1   
    50   49   50 1   
    51   49   52 1   
    52   49   57 1   
    53   50   51 2   
    54   50   62 1   
    55   52   53 1   
    56   52   58 1   
    57   52   59 1   
    58   53   54 1   
    59   53   55 2   
    60   54   60 1   
    61   54   61 1   
    62   62   63 1   
    63   62   66 1   
    64   63   64 1   
    65   63   67 1   
    66   63   68 1   
    67   64   65 2   
    68   64   69 1   
    69   69   70 1   
    70   69   76 1   
    71   70   71 1   
    72   70   73 1   
    73   70   77 1   
    74   71   72 2   
    75   71   83 1   
    76   73   74 1   
    77   73   75 1   
    78   73   78 1   
    79   74   80 1   
    80   74   81 1   
    81   74   82 1   
    82   75   79 1   
    83   83   84 1   
    84   83   91 1   
    85   84   85 1   
    86   84   87 1   
    87   84   92 1   
    88   85   86 2   
    89   85  102 1   
    90   87   88 1   
    91   87   89 1   
    92   87   93 1   
    93   88   90 1   
    94   88   94 1   
    95   88   95 1   
    96   89   96 1   
    97   89   97 1   
    98   89   98 1   
    99   90   99 1   
   100   90  100 1   
   101   90  101 1   
   102  102  103 1   
   103  102  110 1   
   104  103  104 1   
   105  103  106 1   
   106  103  111 1   
   107  104  105 2   
   108  104  114 1   
   109  106  107 1   
   110  106  112 1   
   111  106  113 1   
   112  107  108 1   
   113  107  109 1   
   114  114  115 1   
   115  114  125 1   
   116  115  116 1   
   117  115  118 1   
   118  115  126 1   
   119  116  117 2   
   120  116  134 1   
   121  118  119 1   
   122  118  127 1   
   123  118  128 1   
   124  119  120 ar  
   125  119  121 ar  
   126  120  122 ar  
   127  120  129 1   
   128  121  123 ar  
   129  121  130 1   
   130  122  124 ar  
   131  122  131 1   
   132  123  124 ar  
   133  123  132 1   
   134  124  133 1   
   135  134  135 1   
   136  134  140 1   
   137  135  136 1   
   138  135  138 1   
   139  135  141 1   
   140  136  137 2   
   141  136  148 1   
   142  138  139 1   
   143  138  142 1   
   144  138  143 1   
   145  139  140 1   
   146  139  144 1   
   147  139  145 1   
   148  140  146 1   
   149  140  147 1   
   150  148  149 1   
   151  148  157 1   
   152  149  150 1   
   153  149  152 1   
   154  149  158 1   
   155  150  151 2   
   156  150  163 1   
   157  152  153 1   
   158  152  159 1   
   159  152  160 1   
   160  153  154 1   
   161  153  161 1   
   162  153  162 1   
   163  154  155 1   
   164  154  156 1   
   165  163  164 1   
   166  163  168 1   
   167  164  165 1   
   168  164  166 1   
   169  164  167 1   
   170  170  171 1   
   171  170  172 1   
   172  173  174 1   
   173  173  175 1   
   174  176  177 1   
   175  176  178 1   
   176  179  180 1   
   177  179  181 1   
@<TRIPOS>SUBSTRUCTURE
     1 MOL         1 TEMP              0 ****  ****    0 ROOT
