@<TRIPOS>MOLECULE
MOL
  192   187     1     0     0
SMALL
resp


@<TRIPOS>ATOM
      1 C1         -9.1030    0.6980   -2.0400 c3        1 MOL     -0.545419
      2 C2         -7.9890    0.4660   -0.9760 c         1 MOL      0.798217
      3 O1         -6.8260    0.2230   -1.2920 o         1 MOL     -0.657960
      4 H1         -9.2830   -0.2290   -2.5850 hc        1 MOL      0.140350
      5 H2        -10.0210    1.0110   -1.5430 hc        1 MOL      0.140350
      6 H3         -8.7840    1.4730   -2.7370 hc        1 MOL      0.140350
      7 N1         -8.3710    0.4770    0.3340 n         1 MOL     -0.648473
      8 C3         -7.5360    0.0610    1.5410 c3        1 MOL      0.258206
      9 C4         -7.0730   -1.3810    1.6330 c         1 MOL      0.543782
     10 O2         -7.1470   -1.9970    2.7100 o         1 MOL     -0.527181
     11 C5         -8.0980    0.5090    2.8550 c3        1 MOL     -0.307906
     12 C6         -8.5920    1.9440    2.6830 c         1 MOL      0.796565
     13 O3         -7.8550    2.9100    2.8730 o         1 MOL     -0.665563
     14 O4         -9.7930    2.1760    2.3960 o         1 MOL     -0.665563
     15 H4         -9.3300    0.7410    0.4630 hn        1 MOL      0.295394
     16 H5         -6.6120    0.6300    1.5850 h1        1 MOL      0.072508
     17 H6         -7.3570    0.4690    3.6410 hc        1 MOL      0.066335
     18 H7         -8.9460   -0.1320    3.0910 hc        1 MOL      0.066335
     19 N2         -6.6520   -2.0390    0.5620 n         1 MOL     -0.391554
     20 C7         -6.1410   -3.4090    0.5770 c3        1 MOL      0.096121
     21 C8         -4.6820   -3.5350    0.8950 c         1 MOL      0.516087
     22 O5         -4.3280   -4.5000    1.5600 o         1 MOL     -0.569390
     23 C9         -6.4590   -4.0790   -0.7760 c3        1 MOL     -0.079771
     24 C10        -7.9370   -4.1020   -1.0690 c3        1 MOL      0.047929
     25 C11        -8.3410   -5.2250   -2.0540 c3        1 MOL      0.084015
     26 C12        -9.7990   -4.9930   -2.5530 c3        1 MOL     -0.073541
     27 N3         -9.8840   -5.4830   -3.9120 n4        1 MOL     -0.177165
     28 H8         -6.6390   -1.5660   -0.3340 hn        1 MOL      0.193550
     29 H9         -6.7110   -3.9740    1.3130 h1        1 MOL      0.085370
     30 H10        -6.1620   -5.1250   -0.7230 hc        1 MOL      0.022107
     31 H11        -6.0000   -3.6180   -1.6510 hc        1 MOL      0.022107
     32 H12        -8.3400   -3.1170   -1.3140 hc        1 MOL     -0.016023
     33 H13        -8.5000   -4.1640   -0.1390 hc        1 MOL     -0.016023
     34 H14        -8.1350   -6.2130   -1.6310 hc        1 MOL      0.009741
     35 H15        -7.5940   -5.0220   -2.8130 hc        1 MOL      0.009741
     36 H16        -9.8770   -3.9030   -2.5830 hx        1 MOL      0.101583
     37 H17       -10.5490   -5.4550   -1.9160 hx        1 MOL      0.101583
     38 H18       -10.8070   -5.3990   -4.3100 hn        1 MOL      0.232921
     39 H19        -9.2740   -4.9300   -4.4850 hn        1 MOL      0.232921
     40 H20        -9.5320   -6.4210   -3.9100 hn        1 MOL      0.232921
     41 N4         -3.7480   -2.6790    0.5410 n         1 MOL     -0.315261
     42 C13        -3.8230   -1.6200   -0.4760 c3        1 MOL     -0.032129
     43 C14        -3.8700   -0.2310    0.0630 c         1 MOL     -0.034925
     44 O6         -3.8670   -0.0490    1.2640 o         1 MOL     -0.342926
     45 C15        -2.5990   -1.7870   -1.4710 c3        1 MOL     -0.250616
     46 C16        -1.2880   -2.0160   -0.7420 c         1 MOL      0.701006
     47 O7         -0.8870   -1.1080    0.0010 o         1 MOL     -0.674291
     48 O8         -0.7420   -3.1540   -0.9170 o         1 MOL     -0.674291
     49 H21        -2.8670   -2.8900    0.9830 hn        1 MOL      0.327838
     50 H22        -4.7430   -1.7740   -1.0400 h1        1 MOL      0.175444
     51 H23        -2.5750   -0.9310   -2.1440 hc        1 MOL      0.056043
     52 H24        -2.8420   -2.6900   -2.0220 hc        1 MOL      0.056043
     53 N5         -4.1000    0.8240   -0.7870 n         1 MOL     -0.090934
     54 C17        -4.2290    2.2140   -0.3280 c3        1 MOL     -0.103403
     55 C18        -2.9320    2.8120    0.1550 c         1 MOL      0.571850
     56 O9         -1.9000    2.2180    0.1630 o         1 MOL     -0.415458
     57 H25        -4.3420    0.5290   -1.7280 hn        1 MOL      0.257815
     58 H26        -4.8620    2.2750    0.5560 h1        1 MOL      0.090879
     59 H27        -4.6080    2.8270   -1.1470 h1        1 MOL      0.090879
     60 N6         -3.0010    4.0000    0.7090 n         1 MOL     -0.565319
     61 C19        -1.9380    4.7810    1.3770 c3        1 MOL      0.301170
     62 C20        -2.0560    6.2290    1.0210 c         1 MOL      0.403045
     63 O10        -3.1240    6.7120    0.8700 o         1 MOL     -0.525431
     64 C21        -1.7810    4.4370    2.9240 c3        1 MOL     -0.049455
     65 C22        -0.8060    3.2980    3.2190 c         1 MOL      0.577777
     66 O11         0.1210    3.0250    2.4060 o         1 MOL     -0.644498
     67 O12        -1.0670    2.6620    4.2750 o         1 MOL     -0.644498
     68 H28        -3.8940    4.4350    0.8470 hn        1 MOL      0.296801
     69 H29        -1.0240    4.4510    0.8730 h1        1 MOL      0.080275
     70 H30        -2.7610    4.4490    3.3930 hc        1 MOL      0.027288
     71 H31        -1.2760    5.2730    3.4120 hc        1 MOL      0.027288
     72 N7         -0.9900    7.0190    0.9080 n         1 MOL     -0.430451
     73 C23         0.3680    6.6690    1.2280 c3        1 MOL     -0.000785
     74 C24         1.0930    6.0810   -0.0000 c         1 MOL      0.691731
     75 O13         0.7140    6.4670   -1.1020 o         1 MOL     -0.566631
     76 H32        -1.0830    7.9030    0.4220 hn        1 MOL      0.318565
     77 H33         0.4570    5.9650    2.0630 h1        1 MOL      0.029044
     78 H34         0.8660    7.5950    1.5210 h1        1 MOL      0.029044
     79 N8          2.1090    5.2700    0.2190 n         1 MOL     -0.692104
     80 C25         2.7980    4.6060   -0.8870 c3        1 MOL      0.073134
     81 C26         1.8590    3.4640   -1.2610 c         1 MOL      0.538380
     82 O14         1.2780    2.8220   -0.3640 o         1 MOL     -0.527805
     83 C27         4.1370    4.1140   -0.4220 c3        1 MOL      0.514139
     84 C28         5.2510    5.2260   -0.3290 c3        1 MOL     -0.298604
     85 O15         4.6300    3.1370   -1.2720 oh        1 MOL     -0.633974
     86 H35         2.3640    5.0460    1.1710 hn        1 MOL      0.316735
     87 H36         2.8750    5.3750   -1.6600 h1        1 MOL      0.080619
     88 H37         4.0350    3.6720    0.5740 h1        1 MOL     -0.028782
     89 H38         5.2070    2.6610   -0.6770 ho        1 MOL      0.364299
     90 H39         4.9570    5.9180    0.4570 hc        1 MOL      0.066207
     91 H40         6.1520    4.7660    0.0930 hc        1 MOL      0.066207
     92 H41         5.4880    5.7170   -1.2700 hc        1 MOL      0.066207
     93 N9          1.8670    3.0760   -2.5650 n         1 MOL     -0.723269
     94 C29         1.1490    1.9770   -3.1850 c3        1 MOL      0.077625
     95 C30         1.5430    0.6120   -2.7140 c         1 MOL      0.852809
     96 O16         1.4150    0.2990   -1.4980 o         1 MOL     -0.577986
     97 C31        -0.3730    2.2350   -3.2180 c3        1 MOL      0.165865
     98 C32        -0.7560    3.7030   -3.5790 c3        1 MOL      0.211336
     99 C33        -1.0470    1.2700   -4.2000 c3        1 MOL     -0.372450
    100 C34        -2.2410    3.8800   -3.6660 c3        1 MOL     -0.403862
    101 H42         2.4680    3.5490   -3.2250 hn        1 MOL      0.375517
    102 H43         1.4250    2.1020   -4.2350 h1        1 MOL      0.039969
    103 H44        -0.8360    2.0940   -2.2460 hc        1 MOL     -0.101275
    104 H45        -0.2030    4.0540   -4.4530 hc        1 MOL     -0.022444
    105 H46        -0.4350    4.2900   -2.7310 hc        1 MOL     -0.022444
    106 H47        -1.1720    1.7400   -5.1820 hc        1 MOL      0.080077
    107 H48        -0.5740    0.2970   -4.2820 hc        1 MOL      0.080077
    108 H49        -2.0310    1.1270   -3.7520 hc        1 MOL      0.080077
    109 H50        -2.4810    3.3400   -4.5900 hc        1 MOL      0.100528
    110 H51        -2.6010    3.4590   -2.7340 hc        1 MOL      0.100528
    111 H52        -2.4650    4.9430   -3.7230 hc        1 MOL      0.100528
    112 N10         2.0330   -0.3490   -3.5370 n         1 MOL     -0.767342
    113 C35         2.2110   -1.8150   -3.3010 c3        1 MOL      0.227163
    114 C36         3.6510   -2.2430   -3.3520 c         1 MOL      0.435294
    115 O17         3.9530   -3.3770   -3.7450 o         1 MOL     -0.574472
    116 C37         1.1980   -2.7410   -4.0650 c3        1 MOL      0.482383
    117 C38         1.4740   -2.5350   -5.5880 c3        1 MOL     -0.349517
    118 O18        -0.1750   -2.5130   -3.8210 oh        1 MOL     -0.653281
    119 H53         2.1840   -0.0740   -4.4950 hn        1 MOL      0.292347
    120 H54         2.0040   -1.9860   -2.2390 h1        1 MOL     -0.070404
    121 H55         1.4520   -3.7510   -3.7570 h1        1 MOL     -0.018923
    122 H56        -0.4440   -2.5050   -2.8990 ho        1 MOL      0.389990
    123 H57         2.4760   -2.8190   -5.9210 hc        1 MOL      0.085508
    124 H58         0.8040   -3.1620   -6.1690 hc        1 MOL      0.085508
    125 H59         1.2750   -1.4900   -5.8130 hc        1 MOL      0.085508
    126 N11         4.5570   -1.4240   -2.9740 n         1 MOL     -0.081897
    127 C39         5.9040   -1.7050   -2.6260 c3        1 MOL     -0.124677
    128 C40         6.0950   -1.4280   -1.0900 c         1 MOL      0.419541
    129 O19         5.6580   -0.3800   -0.5110 o         1 MOL     -0.490809
    130 C41         6.9790   -0.9580   -3.4070 c3        1 MOL      0.335134
    131 C42         6.9990   -1.4950   -4.8410 c3        1 MOL     -0.279889
    132 O20         6.8170    0.3800   -3.4000 oh        1 MOL     -0.598175
    133 H60         4.3640   -0.4610   -2.7490 hn        1 MOL      0.194507
    134 H61         6.1050   -2.7680   -2.7420 h1        1 MOL      0.068084
    135 H62         7.9790   -1.1880   -3.0230 h1        1 MOL     -0.005992
    136 H63         7.3780    0.7960   -2.7310 ho        1 MOL      0.398269
    137 H64         7.6800   -0.9000   -5.4400 hc        1 MOL      0.079133
    138 H65         7.5280   -2.4530   -4.8540 hc        1 MOL      0.079133
    139 H66         6.0080   -1.5040   -5.3030 hc        1 MOL      0.079133
    140 N12         6.5810   -2.4020   -0.3660 n         1 MOL     -0.416522
    141 C43         6.8650   -2.3130    1.0480 c3        1 MOL     -0.046433
    142 C44         5.6240   -2.0950    1.9460 c         1 MOL      0.562996
    143 O21         5.5770   -1.1110    2.6970 o         1 MOL     -0.528721
    144 C45         7.9980   -1.3210    1.3790 c3        1 MOL     -0.038210
    145 C46         9.3840   -1.4990    0.7280 c3        1 MOL     -0.183649
    146 C47        10.3440   -0.4040    1.2290 c3        1 MOL      0.157809
    147 C48        11.7530   -0.7960    0.8230 c3        1 MOL     -0.004993
    148 N13        12.6360    0.3780    0.8380 n4        1 MOL     -0.165619
    149 H67         6.8320   -3.2350   -0.8880 hn        1 MOL      0.297661
    150 H68         7.3090   -3.2660    1.3580 h1        1 MOL      0.079669
    151 H69         8.0010   -1.1680    2.4580 hc        1 MOL      0.057576
    152 H70         7.5810   -0.3450    1.1530 hc        1 MOL      0.057576
    153 H71         9.3000   -1.5120   -0.3560 hc        1 MOL      0.051616
    154 H72         9.8260   -2.4010    1.1520 hc        1 MOL      0.051616
    155 H73        10.3320   -0.2110    2.3050 hc        1 MOL     -0.003945
    156 H74        10.0180    0.5200    0.7540 hc        1 MOL     -0.003945
    157 H75        11.7530   -1.2520   -0.1680 hx        1 MOL      0.074968
    158 H76        12.0610   -1.5730    1.5090 hx        1 MOL      0.074968
    159 H77        13.5630    0.2840    0.4420 hn        1 MOL      0.188242
    160 H78        12.1910    1.0360    0.2080 hn        1 MOL      0.188242
    161 H79        12.7450    0.7960    1.7500 hn        1 MOL      0.188242
    162 N14         4.5510   -2.8830    1.7910 n         1 MOL     -0.474452
    163 C49         3.2880   -2.7350    2.5230 c3        1 MOL      0.400601
    164 C50         2.1110   -2.4640    1.5720 c         1 MOL      0.284848
    165 O22         1.4900   -1.4200    1.7410 o         1 MOL     -0.546206
    166 C51         3.0970   -3.7790    3.5480 c3        1 MOL     -0.229357
    167 C52         3.9230   -3.5390    4.8640 c3        1 MOL     -0.149199
    168 C53         3.5860   -4.5970    5.9330 c         1 MOL      0.721688
    169 O23         2.6840   -4.3390    6.7350 o         1 MOL     -0.625922
    170 O24         4.2710   -5.6520    6.1010 o         1 MOL     -0.625922
    171 H80         4.6230   -3.6820    1.1770 hn        1 MOL      0.263534
    172 H81         3.3980   -1.7780    3.0300 h1        1 MOL      0.088409
    173 H82         3.2920   -4.7920    3.2090 hc        1 MOL      0.070324
    174 H83         2.0590   -3.7280    3.8920 hc        1 MOL      0.070324
    175 H84         3.9210   -2.5090    5.2000 hc        1 MOL      0.013832
    176 H85         4.9480   -3.7170    4.5220 hc        1 MOL      0.013832
    177 N15         1.8010   -3.2970    0.5690 n         1 MOL     -0.288399
    178 C54         2.1940   -4.6890    0.4340 c3        1 MOL     -0.103196
    179 H86         2.5150   -4.8780   -0.5910 h1        1 MOL      0.059753
    180 H87         3.0150   -4.9050    1.1170 h1        1 MOL      0.059753
    181 H88         1.3450   -5.3320    0.6720 h1        1 MOL      0.059753
    182 H89         0.9860   -2.9740    0.0490 hn        1 MOL      0.382334
    183 Ca1         0.4090    0.8830    1.0200 Ca        1 MOL      1.638952
    184 O25         1.0930    0.7930    3.7540 oh        1 MOL     -0.853519
    185 H90         0.7960    0.0220    4.2270 ho        1 MOL      0.409154
    186 H91         0.4590    1.4760    3.9830 ho        1 MOL      0.409154
    187 O26        -1.6180    0.1330    2.5970 oh        1 MOL     -0.853519
    188 H92        -1.7210   -0.5320    3.2750 ho        1 MOL      0.409154
    189 H93        -2.3680   -0.0040    2.0130 ho        1 MOL      0.409154
    190 O27         2.9950    0.8670    1.7090 oh        1 MOL     -0.853519
    191 H94         3.4750    0.3600    2.3540 ho        1 MOL      0.409154
    192 H95         3.6190    1.5130    1.3830 ho        1 MOL      0.409154
@<TRIPOS>BOND
     1    1    2 1   
     2    1    4 1   
     3    1    5 1   
     4    1    6 1   
     5    2    3 2   
     6    2    7 1   
     7    7    8 1   
     8    7   15 1   
     9    8    9 1   
    10    8   11 1   
    11    8   16 1   
    12    9   10 2   
    13    9   19 1   
    14   11   12 1   
    15   11   17 1   
    16   11   18 1   
    17   12   13 1   
    18   12   14 1   
    19   19   20 1   
    20   19   28 1   
    21   20   21 1   
    22   20   23 1   
    23   20   29 1   
    24   21   22 2   
    25   21   41 1   
    26   23   24 1   
    27   23   30 1   
    28   23   31 1   
    29   24   25 1   
    30   24   32 1   
    31   24   33 1   
    32   25   26 1   
    33   25   34 1   
    34   25   35 1   
    35   26   27 1   
    36   26   36 1   
    37   26   37 1   
    38   27   38 1   
    39   27   39 1   
    40   27   40 1   
    41   41   42 1   
    42   41   49 1   
    43   42   43 1   
    44   42   45 1   
    45   42   50 1   
    46   43   44 2   
    47   43   53 1   
    48   45   46 1   
    49   45   51 1   
    50   45   52 1   
    51   46   47 1   
    52   46   48 1   
    53   53   54 1   
    54   53   57 1   
    55   54   55 1   
    56   54   58 1   
    57   54   59 1   
    58   55   56 2   
    59   55   60 1   
    60   60   61 1   
    61   60   68 1   
    62   61   62 1   
    63   61   64 1   
    64   61   69 1   
    65   62   63 2   
    66   62   72 1   
    67   64   65 1   
    68   64   70 1   
    69   64   71 1   
    70   65   66 1   
    71   65   67 1   
    72   72   73 1   
    73   72   76 1   
    74   73   74 1   
    75   73   77 1   
    76   73   78 1   
    77   74   75 2   
    78   74   79 1   
    79   79   80 1   
    80   79   86 1   
    81   80   81 1   
    82   80   83 1   
    83   80   87 1   
    84   81   82 2   
    85   81   93 1   
    86   83   84 1   
    87   83   85 1   
    88   83   88 1   
    89   84   90 1   
    90   84   91 1   
    91   84   92 1   
    92   85   89 1   
    93   93   94 1   
    94   93  101 1   
    95   94   95 1   
    96   94   97 1   
    97   94  102 1   
    98   95   96 2   
    99   95  112 1   
   100   97   98 1   
   101   97   99 1   
   102   97  103 1   
   103   98  100 1   
   104   98  104 1   
   105   98  105 1   
   106   99  106 1   
   107   99  107 1   
   108   99  108 1   
   109  100  109 1   
   110  100  110 1   
   111  100  111 1   
   112  112  113 1   
   113  112  119 1   
   114  113  114 1   
   115  113  116 1   
   116  113  120 1   
   117  114  115 2   
   118  114  126 1   
   119  116  117 1   
   120  116  118 1   
   121  116  121 1   
   122  117  123 1   
   123  117  124 1   
   124  117  125 1   
   125  118  122 1   
   126  126  127 1   
   127  126  133 1   
   128  127  128 1   
   129  127  130 1   
   130  127  134 1   
   131  128  129 2   
   132  128  140 1   
   133  130  131 1   
   134  130  132 1   
   135  130  135 1   
   136  131  137 1   
   137  131  138 1   
   138  131  139 1   
   139  132  136 1   
   140  140  141 1   
   141  140  149 1   
   142  141  142 1   
   143  141  144 1   
   144  141  150 1   
   145  142  143 2   
   146  142  162 1   
   147  144  145 1   
   148  144  151 1   
   149  144  152 1   
   150  145  146 1   
   151  145  153 1   
   152  145  154 1   
   153  146  147 1   
   154  146  155 1   
   155  146  156 1   
   156  147  148 1   
   157  147  157 1   
   158  147  158 1   
   159  148  159 1   
   160  148  160 1   
   161  148  161 1   
   162  162  163 1   
   163  162  171 1   
   164  163  164 1   
   165  163  166 1   
   166  163  172 1   
   167  164  165 2   
   168  164  177 1   
   169  166  167 1   
   170  166  173 1   
   171  166  174 1   
   172  167  168 1   
   173  167  175 1   
   174  167  176 1   
   175  168  169 1   
   176  168  170 1   
   177  177  178 1   
   178  177  182 1   
   179  178  179 1   
   180  178  180 1   
   181  178  181 1   
   182  184  185 1   
   183  184  186 1   
   184  187  188 1   
   185  187  189 1   
   186  190  191 1   
   187  190  192 1   
@<TRIPOS>SUBSTRUCTURE
     1 MOL         1 TEMP              0 ****  ****    0 ROOT
