@<TRIPOS>MOLECULE
MOL
  188   182     1     0     0
SMALL
resp


@<TRIPOS>ATOM
      1 C1         -5.6060   -3.2610    1.8030 c3        1 MOL     -0.315366
      2 C2         -6.6000   -2.6300    0.8950 c         1 MOL      0.611307
      3 O1         -6.2350   -2.0510   -0.1450 o         1 MOL     -0.513194
      4 H1         -5.9750   -4.2340    2.1260 hc        1 MOL      0.085408
      5 H2         -4.6610   -3.3880    1.2750 hc        1 MOL      0.085408
      6 H3         -5.4520   -2.6230    2.6740 hc        1 MOL      0.085408
      7 N1         -7.9070   -2.5680    1.3110 n         1 MOL     -0.549336
      8 C3         -9.1480   -2.2400    0.5820 c3        1 MOL      0.328960
      9 C4         -9.2060   -0.8310   -0.0600 c         1 MOL      0.347490
     10 O2         -9.5030   -0.6720   -1.2510 o         1 MOL     -0.474433
     11 C5         -9.5450   -3.4160   -0.3560 c3        1 MOL     -0.244387
     12 C6        -11.0760   -3.5490   -0.5640 c         1 MOL      0.644830
     13 O3        -11.8940   -2.7830   -0.0230 o         1 MOL     -0.640989
     14 O4        -11.4700   -4.6240   -1.1490 o         1 MOL     -0.640989
     15 H4         -7.9820   -2.9350    2.2460 hn        1 MOL      0.284642
     16 H5         -9.9080   -2.2820    1.3610 h1        1 MOL     -0.008961
     17 H6         -9.1060   -4.3550   -0.0180 hc        1 MOL      0.075630
     18 H7         -9.1260   -3.2440   -1.3490 hc        1 MOL      0.075630
     19 N2         -8.7910    0.2460    0.5680 n         1 MOL     -0.482589
     20 C7         -8.7300    1.6240    0.0120 c3        1 MOL      0.352298
     21 C8         -7.2800    2.1190   -0.2150 c         1 MOL      0.481003
     22 O5         -7.1230    3.3110   -0.4260 o         1 MOL     -0.544314
     23 C9         -9.6140    2.5230    0.8740 c3        1 MOL     -0.080155
     24 C10        -9.1680    3.2060    2.1890 c3        1 MOL     -0.036662
     25 C11       -10.1450    4.2240    2.7560 c3        1 MOL     -0.020973
     26 C12       -11.2630    3.4640    3.4590 c3        1 MOL      0.011404
     27 N3        -12.6150    4.1650    3.3970 n4        1 MOL     -0.327670
     28 H8         -8.3460    0.0790    1.4650 hn        1 MOL      0.201161
     29 H9         -9.1920    1.7130   -0.9770 h1        1 MOL      0.061164
     30 H10       -10.5530    2.0060    1.0510 hc        1 MOL      0.022990
     31 H11        -9.8260    3.3480    0.1880 hc        1 MOL      0.022990
     32 H12        -8.2220    3.6930    1.9360 hc        1 MOL      0.023044
     33 H13        -9.0260    2.4850    2.9930 hc        1 MOL      0.023044
     34 H14       -10.4370    4.9490    1.9960 hc        1 MOL      0.038239
     35 H15        -9.6130    4.8120    3.5100 hc        1 MOL      0.038239
     36 H16       -10.9710    3.1500    4.4600 hx        1 MOL      0.090098
     37 H17       -11.4310    2.5550    2.8800 hx        1 MOL      0.090098
     38 H18       -13.2730    3.7180    4.0090 hn        1 MOL      0.270757
     39 H19       -12.4250    5.1280    3.6210 hn        1 MOL      0.270757
     40 H20       -13.0100    4.1040    2.4720 hn        1 MOL      0.270757
     41 N4         -6.1940    1.2640   -0.2170 n         1 MOL     -0.522650
     42 C13        -4.8410    1.6790   -0.3350 c3        1 MOL      0.028409
     43 C14        -4.4890    2.1530   -1.7050 c         1 MOL      0.715617
     44 O6         -4.7710    1.5800   -2.7150 o         1 MOL     -0.498482
     45 C15        -3.9620    0.5000    0.0060 c3        1 MOL     -0.059098
     46 C16        -2.5840    1.0580    0.1220 c         1 MOL      0.575686
     47 O7         -2.2780    1.5550    1.2380 o         1 MOL     -0.728049
     48 O8         -1.7340    1.0010   -0.7830 o         1 MOL     -0.728049
     49 H21        -6.3160    0.2550   -0.2040 hn        1 MOL      0.301844
     50 H22        -4.6890    2.5090    0.3590 h1        1 MOL      0.055951
     51 H23        -4.0080   -0.2620   -0.7680 hc        1 MOL      0.044606
     52 H24        -4.2180    0.0230    0.9550 hc        1 MOL      0.044606
     53 N5         -3.6040    3.1520   -1.6890 n         1 MOL     -0.513118
     54 C17        -3.2150    3.8950   -2.9180 c3        1 MOL     -0.129203
     55 C18        -2.3550    3.0760   -3.9230 c         1 MOL      0.405029
     56 O9         -2.4000    3.3600   -5.1380 o         1 MOL     -0.527028
     57 H25        -3.3790    3.5490   -0.7750 hn        1 MOL      0.266414
     58 H26        -2.8310    4.8850   -2.6710 h1        1 MOL      0.123978
     59 H27        -4.1670    4.1860   -3.3500 h1        1 MOL      0.123978
     60 N6         -1.5460    2.2100   -3.3860 n         1 MOL     -0.212541
     61 C19        -0.7000    1.3160   -4.1050 c3        1 MOL      0.150337
     62 C20        -1.0570   -0.2030   -3.7860 c         1 MOL      0.425959
     63 O10        -0.2560   -1.0880   -3.9720 o         1 MOL     -0.505573
     64 C21         0.6930    1.8340   -4.0850 c3        1 MOL     -0.332333
     65 C22         1.2360    2.1440   -2.7040 c         1 MOL      0.593077
     66 N7          2.1660    2.9670   -2.5570 n         1 MOL     -0.679720
     67 O11         0.9310    1.4610   -1.7180 o         1 MOL     -0.449842
     68 H28        -1.6950    2.1280   -2.3930 hn        1 MOL      0.097846
     69 H29        -0.9590    1.4440   -5.1520 h1        1 MOL      0.084777
     70 H30         0.6370    2.8010   -4.5810 hc        1 MOL      0.126680
     71 H31         1.2720    1.0770   -4.6070 hc        1 MOL      0.126680
     72 H32         2.3000    3.6250   -3.3170 hn        1 MOL      0.341198
     73 H33         2.5440    3.0540   -1.6130 hn        1 MOL      0.341198
     74 N8         -2.2480   -0.4390   -3.1780 n         1 MOL     -0.300613
     75 C23        -2.7370   -1.8620   -2.8800 c3        1 MOL     -0.119728
     76 C24        -2.2090   -2.5780   -1.6210 c         1 MOL      0.463633
     77 O12        -2.6600   -3.6970   -1.3200 o         1 MOL     -0.539154
     78 H34        -2.9670    0.2520   -3.0020 hn        1 MOL      0.250163
     79 H35        -2.4180   -2.4600   -3.7410 h1        1 MOL      0.123114
     80 H36        -3.8240   -1.8880   -2.9070 h1        1 MOL      0.123114
     81 N9         -1.3840   -1.9830   -0.7520 n         1 MOL     -0.207245
     82 C25        -0.7200   -2.6290    0.4040 c3        1 MOL      0.001845
     83 C26         0.6190   -1.8460    0.5840 c         1 MOL      0.091047
     84 O13         0.5870   -0.6390    0.4240 o         1 MOL     -0.404316
     85 C27        -1.5270   -2.5680    1.6500 c3        1 MOL     -0.287240
     86 C28        -0.8240   -2.9110    2.9380 ca        1 MOL      0.051194
     87 C29        -0.3340   -4.1650    3.1790 ca        1 MOL     -0.142716
     88 C30        -0.6530   -1.9060    3.9550 ca        1 MOL     -0.142716
     89 C31         0.4020   -4.3560    4.3730 ca        1 MOL     -0.280420
     90 C32        -0.0620   -2.1520    5.1850 ca        1 MOL     -0.280420
     91 C33         0.6210   -3.3740    5.3480 ca        1 MOL      0.393701
     92 O14         1.2850   -3.6880    6.4640 oh        1 MOL     -0.453181
     93 H37        -1.0530   -1.0830   -1.0710 hn        1 MOL      0.188477
     94 H38        -0.4630   -3.6250    0.0400 h1        1 MOL      0.080115
     95 H39        -2.3450   -3.2780    1.5890 hc        1 MOL      0.155256
     96 H40        -1.9890   -1.5920    1.7780 hc        1 MOL      0.155256
     97 H41        -0.4510   -5.0640    2.5990 ha        1 MOL      0.136782
     98 H42        -0.9240   -0.8880    3.6910 ha        1 MOL      0.136782
     99 H43         0.9230   -5.2720    4.5930 ha        1 MOL      0.135166
    100 H44         0.0250   -1.3820    5.9290 ha        1 MOL      0.135166
    101 H45         1.3350   -2.8640    6.9530 ho        1 MOL      0.350288
    102 N10         1.6660   -2.6070    0.8350 n         1 MOL      0.130176
    103 C34         3.0880   -2.2050    0.7890 c3        1 MOL     -0.003280
    104 C35         3.4580   -1.7640   -0.6070 c         1 MOL      0.289506
    105 O15         4.1200   -0.7680   -0.7500 o         1 MOL     -0.518459
    106 C36         4.0060   -3.3050    1.2980 c3        1 MOL     -0.075150
    107 C37         3.6590   -3.6240    2.7950 c3        1 MOL     -0.039016
    108 C38         5.5000   -2.8930    1.2780 c3        1 MOL     -0.273978
    109 C39         3.5980   -2.4000    3.7290 c3        1 MOL      0.094830
    110 H46         1.5150   -3.6030    0.8690 hn        1 MOL      0.137385
    111 H47         3.2970   -1.2880    1.3380 h1        1 MOL      0.108031
    112 H48         3.8770   -4.2290    0.7490 hc        1 MOL      0.029040
    113 H49         4.4580   -4.2550    3.1870 hc        1 MOL      0.038772
    114 H50         2.7120   -4.1170    2.9910 hc        1 MOL      0.038772
    115 H51         6.0340   -3.7850    1.6090 hc        1 MOL      0.092067
    116 H52         5.9130   -2.6690    0.3020 hc        1 MOL      0.092067
    117 H53         5.7430   -2.0480    1.9260 hc        1 MOL      0.092067
    118 H54         2.6020   -1.9700    3.5610 hc        1 MOL     -0.039736
    119 H55         3.5610   -2.7970    4.7450 hc        1 MOL     -0.039736
    120 H56         4.4220   -1.7160    3.5370 hc        1 MOL     -0.039736
    121 N11         2.8650   -2.4320   -1.6360 n         1 MOL     -0.213629
    122 C40         3.0360   -1.9740   -2.9810 c3        1 MOL     -0.052065
    123 C41         4.5890   -1.8560   -3.4410 c         1 MOL      0.444439
    124 O16         4.9600   -1.1180   -4.3910 o         1 MOL     -0.537597
    125 C42         2.4210   -3.0090   -3.9220 c3        1 MOL      0.220149
    126 O17         3.3030   -4.1000   -4.2310 oh        1 MOL     -0.674717
    127 H57         2.4620   -3.3450   -1.4350 hn        1 MOL      0.223274
    128 H58         2.5710   -1.0050   -3.1290 h1        1 MOL      0.092927
    129 H59         2.0310   -2.4720   -4.7880 h1        1 MOL      0.028546
    130 H60         1.5090   -3.3680   -3.4350 h1        1 MOL      0.028546
    131 H61         2.9980   -4.7390   -4.8700 ho        1 MOL      0.437231
    132 N12         5.4520   -2.5840   -2.8270 n         1 MOL     -0.030684
    133 C43         6.8610   -2.5340   -2.9780 c3        1 MOL     -0.018788
    134 C44         7.5260   -1.2250   -2.6490 c         1 MOL      0.682954
    135 O18         8.6120   -1.0550   -3.1490 o         1 MOL     -0.569475
    136 C45         7.2000   -3.0830   -4.4420 c3        1 MOL     -0.420521
    137 H62         5.0540   -3.3580   -2.3200 hn        1 MOL      0.157679
    138 H63         7.2780   -3.2080   -2.2340 h1        1 MOL      0.079233
    139 H64         6.5670   -3.9450   -4.6400 hc        1 MOL      0.124982
    140 H65         7.0800   -2.3420   -5.2420 hc        1 MOL      0.124982
    141 H66         8.2190   -3.4620   -4.5280 hc        1 MOL      0.124982
    142 N13         6.9940   -0.4300   -1.7190 n         1 MOL     -0.646231
    143 C46         7.5420    0.7840   -1.1790 c3        1 MOL      0.449927
    144 C47         7.9880    0.6930    0.3230 c         1 MOL      0.288919
    145 O19         7.3330    0.1390    1.2090 o         1 MOL     -0.435768
    146 C48         6.5290    1.9120   -1.2980 c3        1 MOL     -0.071522
    147 H67         6.0150   -0.6140   -1.5330 hn        1 MOL      0.227431
    148 H68         8.4080    1.0860   -1.7660 h1        1 MOL     -0.014869
    149 H69         6.1700    1.9300   -2.3240 hc        1 MOL      0.013045
    150 H70         5.7240    1.9320   -0.5750 hc        1 MOL      0.013045
    151 H71         7.1070    2.8320   -1.1480 hc        1 MOL      0.013045
    152 N14         8.9440    1.5650    0.6130 n         1 MOL     -0.295805
    153 C49         9.5300    1.8020    1.9500 c3        1 MOL     -0.278455
    154 C50        10.0450    0.5510    2.7100 c         1 MOL      0.558136
    155 O20         9.9950    0.5470    3.9270 o         1 MOL     -0.519971
    156 C51         8.6120    2.7730    2.7910 c3        1 MOL      0.132487
    157 C52         8.3390    4.1290    2.1440 c3        1 MOL     -0.034066
    158 C53         9.7040    4.7220    1.6960 c         1 MOL      0.666899
    159 O21        10.6930    4.5880    2.4880 o         1 MOL     -0.670849
    160 O22         9.7790    5.3140    0.5950 o         1 MOL     -0.670849
    161 H72         9.4740    1.9360   -0.1600 hn        1 MOL      0.263965
    162 H73        10.4290    2.4150    1.8990 h1        1 MOL      0.159151
    163 H74         9.0840    3.0150    3.7390 hc        1 MOL     -0.002081
    164 H75         7.6390    2.3230    3.0330 hc        1 MOL     -0.002081
    165 H76         7.9660    4.8140    2.9050 hc        1 MOL     -0.047943
    166 H77         7.6020    4.0550    1.3410 hc        1 MOL     -0.047943
    167 N15        10.4620   -0.5400    2.0610 n         1 MOL     -0.355368
    168 C54        10.7200   -1.8450    2.7740 c3        1 MOL     -0.108676
    169 H78         9.9830   -1.9790    3.5660 h1        1 MOL      0.081984
    170 H79        10.6440   -2.6690    2.0640 h1        1 MOL      0.081984
    171 H80        11.7190   -1.8310    3.2090 h1        1 MOL      0.081984
    172 H81        10.3060   -0.5020    1.0650 hn        1 MOL      0.230310
    173 Ca1         0.2100    2.1290    0.6930 Ca        1 MOL      1.745278
    174 O23         2.8940    1.4120    0.5330 oh        1 MOL     -0.859263
    175 H82         3.6830    1.5250    1.0620 ho        1 MOL      0.421086
    176 H83         3.0710    0.6530   -0.0170 ho        1 MOL      0.421086
    177 O24        -0.5880    4.1920   -0.6780 oh        1 MOL     -0.859263
    178 H84        -0.3070    4.8020   -1.3510 ho        1 MOL      0.421086
    179 H85        -1.3610    4.5890   -0.2790 ho        1 MOL      0.421086
    180 O25         1.1220    1.5380    3.1970 oh        1 MOL     -0.859263
    181 H86         0.7780    2.2290    3.7720 ho        1 MOL      0.421086
    182 H87         1.8000    1.1100    3.7200 ho        1 MOL      0.421086
    183 O26         2.0310    4.1120    1.0240 oh        1 MOL     -0.859263
    184 H88         1.9500    5.0160    0.7330 ho        1 MOL      0.421086
    185 H89         2.8840    4.0720    1.4460 ho        1 MOL      0.421086
    186 O27        -0.7220    3.8440    2.5590 oh        1 MOL     -0.859263
    187 H90        -1.3940    3.6810    3.2210 ho        1 MOL      0.421086
    188 H91        -0.3890    4.7200    2.7610 ho        1 MOL      0.421086
@<TRIPOS>BOND
     1    1    2 1   
     2    1    4 1   
     3    1    5 1   
     4    1    6 1   
     5    2    3 2   
     6    2    7 1   
     7    7    8 1   
     8    7   15 1   
     9    8    9 1   
    10    8   11 1   
    11    8   16 1   
    12    9   10 2   
    13    9   19 1   
    14   11   12 1   
    15   11   17 1   
    16   11   18 1   
    17   12   13 1   
    18   12   14 1   
    19   19   20 1   
    20   19   28 1   
    21   20   21 1   
    22   20   23 1   
    23   20   29 1   
    24   21   22 2   
    25   21   41 1   
    26   23   24 1   
    27   23   30 1   
    28   23   31 1   
    29   24   25 1   
    30   24   32 1   
    31   24   33 1   
    32   25   26 1   
    33   25   34 1   
    34   25   35 1   
    35   26   27 1   
    36   26   36 1   
    37   26   37 1   
    38   27   38 1   
    39   27   39 1   
    40   27   40 1   
    41   41   42 1   
    42   41   49 1   
    43   42   43 1   
    44   42   45 1   
    45   42   50 1   
    46   43   44 2   
    47   43   53 1   
    48   45   46 1   
    49   45   51 1   
    50   45   52 1   
    51   46   47 1   
    52   46   48 1   
    53   53   54 1   
    54   53   57 1   
    55   54   55 1   
    56   54   58 1   
    57   54   59 1   
    58   55   56 2   
    59   55   60 1   
    60   60   61 1   
    61   60   68 1   
    62   61   62 1   
    63   61   64 1   
    64   61   69 1   
    65   62   63 2   
    66   62   74 1   
    67   64   65 1   
    68   64   70 1   
    69   64   71 1   
    70   65   66 1   
    71   65   67 2   
    72   66   72 1   
    73   66   73 1   
    74   74   75 1   
    75   74   78 1   
    76   75   76 1   
    77   75   79 1   
    78   75   80 1   
    79   76   77 2   
    80   76   81 1   
    81   81   82 1   
    82   81   93 1   
    83   82   83 1   
    84   82   85 1   
    85   82   94 1   
    86   83   84 2   
    87   83  102 1   
    88   85   86 1   
    89   85   95 1   
    90   85   96 1   
    91   86   87 ar  
    92   86   88 ar  
    93   87   89 ar  
    94   87   97 1   
    95   88   90 ar  
    96   88   98 1   
    97   89   91 ar  
    98   89   99 1   
    99   90   91 ar  
   100   90  100 1   
   101   91   92 1   
   102   92  101 1   
   103  102  103 1   
   104  102  110 1   
   105  103  104 1   
   106  103  106 1   
   107  103  111 1   
   108  104  105 2   
   109  104  121 1   
   110  106  107 1   
   111  106  108 1   
   112  106  112 1   
   113  107  109 1   
   114  107  113 1   
   115  107  114 1   
   116  108  115 1   
   117  108  116 1   
   118  108  117 1   
   119  109  118 1   
   120  109  119 1   
   121  109  120 1   
   122  121  122 1   
   123  121  127 1   
   124  122  123 1   
   125  122  125 1   
   126  122  128 1   
   127  123  124 2   
   128  123  132 1   
   129  125  126 1   
   130  125  129 1   
   131  125  130 1   
   132  126  131 1   
   133  132  133 1   
   134  132  137 1   
   135  133  134 1   
   136  133  136 1   
   137  133  138 1   
   138  134  135 2   
   139  134  142 1   
   140  136  139 1   
   141  136  140 1   
   142  136  141 1   
   143  142  143 1   
   144  142  147 1   
   145  143  144 1   
   146  143  146 1   
   147  143  148 1   
   148  144  145 2   
   149  144  152 1   
   150  146  149 1   
   151  146  150 1   
   152  146  151 1   
   153  152  153 1   
   154  152  161 1   
   155  153  154 1   
   156  153  156 1   
   157  153  162 1   
   158  154  155 2   
   159  154  167 1   
   160  156  157 1   
   161  156  163 1   
   162  156  164 1   
   163  157  158 1   
   164  157  165 1   
   165  157  166 1   
   166  158  159 1   
   167  158  160 1   
   168  167  168 1   
   169  167  172 1   
   170  168  169 1   
   171  168  170 1   
   172  168  171 1   
   173  174  175 1   
   174  174  176 1   
   175  177  178 1   
   176  177  179 1   
   177  180  181 1   
   178  180  182 1   
   179  183  184 1   
   180  183  185 1   
   181  186  187 1   
   182  186  188 1   
@<TRIPOS>SUBSTRUCTURE
     1 MOL         1 TEMP              0 ****  ****    0 ROOT
