@<TRIPOS>MOLECULE
MOL
  186   183     1     0     0
SMALL
resp


@<TRIPOS>ATOM
      1 C1          5.8090    4.4920   -3.4250 c3        1 MOL     -0.452037
      2 C2          6.0420    3.4800   -2.3100 c         1 MOL      0.699018
      3 O1          5.1720    3.3720   -1.4350 o         1 MOL     -0.593630
      4 H1          4.7580    4.4780   -3.7140 hc        1 MOL      0.116572
      5 H2          6.0740    5.4900   -3.0730 hc        1 MOL      0.116572
      6 H3          6.4260    4.2340   -4.2860 hc        1 MOL      0.116572
      7 N1          7.1110    2.7300   -2.2850 n         1 MOL     -0.551008
      8 C3          7.4110    1.6210   -1.3530 c3        1 MOL      0.090185
      9 C4          6.3030    0.5310   -1.3180 c         1 MOL      0.395173
     10 O2          5.6220    0.3490   -0.2970 o         1 MOL     -0.531798
     11 C5          8.0320    2.1190   -0.0100 c3        1 MOL     -0.031750
     12 C6          7.3410    3.1230    0.8640 c         1 MOL      0.794126
     13 O3          6.2580    2.8590    1.3870 o         1 MOL     -0.757096
     14 O4          7.9230    4.2370    1.0330 o         1 MOL     -0.757096
     15 H4          7.6880    2.7380   -3.1230 hn        1 MOL      0.311504
     16 H5          8.2850    1.1210   -1.7690 h1        1 MOL      0.065487
     17 H6          8.9360    2.6110   -0.3820 hc        1 MOL     -0.004960
     18 H7          8.3100    1.2270    0.5600 hc        1 MOL     -0.004960
     19 N2          6.0950   -0.2140   -2.4420 n         1 MOL     -0.498439
     20 C7          5.2380   -1.4440   -2.6760 c3        1 MOL      0.126092
     21 C8          5.7470   -2.6780   -1.9990 c         1 MOL      0.454807
     22 O5          6.1240   -3.6530   -2.7450 o         1 MOL     -0.563942
     23 C9          3.7290   -1.1600   -2.5080 c3        1 MOL      0.170755
     24 C10         2.8600   -2.3470   -2.7110 c3        1 MOL      0.074154
     25 C11         3.2640    0.0210   -3.3060 c3        1 MOL     -0.246042
     26 C12         2.9090   -2.8720   -4.1740 c3        1 MOL     -0.432193
     27 H8          6.5820    0.0810   -3.2730 hn        1 MOL      0.274315
     28 H9          5.3430   -1.6080   -3.7570 h1        1 MOL      0.026092
     29 H10         3.5480   -0.9460   -1.4540 hc        1 MOL     -0.070736
     30 H11         1.8150   -2.0840   -2.5300 hc        1 MOL      0.017857
     31 H12         3.1630   -3.1420   -2.0280 hc        1 MOL      0.017857
     32 H13         2.2510    0.3270   -3.0150 hc        1 MOL      0.055055
     33 H14         3.8510    0.9290   -3.1200 hc        1 MOL      0.055055
     34 H15         3.2680   -0.0650   -4.3920 hc        1 MOL      0.055055
     35 H16         2.1890   -2.2680   -4.7330 hc        1 MOL      0.092265
     36 H17         3.9300   -2.9170   -4.5420 hc        1 MOL      0.092265
     37 H18         2.5060   -3.8830   -4.1270 hc        1 MOL      0.092265
     38 N3          5.8750   -2.6300   -0.6920 n         1 MOL     -0.347745
     39 C13         6.3920   -3.8250    0.0610 c3        1 MOL     -0.179188
     40 C14         5.3740   -4.9290    0.3280 c         1 MOL      0.612510
     41 O6          5.7100   -6.1340    0.3420 o         1 MOL     -0.584053
     42 C15         7.3100   -3.5030    1.2280 c3        1 MOL     -0.046181
     43 C16         8.3050   -2.3260    0.9580 c         1 MOL      0.737758
     44 O7          9.0150   -2.3620   -0.1040 o         1 MOL     -0.711973
     45 O8          8.6520   -1.6060    1.9100 o         1 MOL     -0.711973
     46 H19         5.4310   -1.9130   -0.1370 hn        1 MOL      0.431422
     47 H20         7.0550   -4.3770   -0.6030 h1        1 MOL      0.126437
     48 H21         7.8170   -4.4290    1.4760 hc        1 MOL     -0.001971
     49 H22         6.6120   -3.2510    2.0390 hc        1 MOL     -0.001971
     50 N4          4.0790   -4.6340    0.3780 n         1 MOL     -0.506971
     51 C17         3.5960   -3.3970    1.0430 c3        1 MOL      0.205795
     52 C18         2.8630   -3.6690    2.4300 c         1 MOL      0.527511
     53 O9          2.4530   -4.7820    2.7220 o         1 MOL     -0.602827
     54 H23         3.4640   -5.4240    0.5370 hn        1 MOL      0.263837
     55 H24         2.9240   -2.9640    0.3080 h1        1 MOL      0.037645
     56 H25         4.4490   -2.7570    1.2740 h1        1 MOL      0.037645
     57 N5          2.5100   -2.6680    3.2710 n         1 MOL     -0.522049
     58 C19         2.6870   -1.2270    3.1210 c3        1 MOL      0.188150
     59 C20         2.4340   -0.7860    1.6560 c         1 MOL      0.140657
     60 O10         3.3740   -0.2770    1.0380 o         1 MOL     -0.528277
     61 C21         4.0890   -0.8390    3.7040 c3        1 MOL     -0.161312
     62 C22         4.3360    0.6610    3.8130 c         1 MOL      0.667504
     63 O11         5.1790    1.0030    4.6760 o         1 MOL     -0.684574
     64 O12         3.7100    1.4600    3.1620 o         1 MOL     -0.684574
     65 H26         2.1360   -2.9660    4.1600 hn        1 MOL      0.304877
     66 H27         1.9100   -0.7950    3.7660 h1        1 MOL      0.076476
     67 H28         4.8240   -1.2610    3.0060 hc        1 MOL      0.035368
     68 H29         4.2250   -1.3000    4.6790 hc        1 MOL      0.035368
     69 N6          1.1950   -0.8940    1.1090 n         1 MOL      0.025240
     70 C23        -0.0120   -1.4810    1.6160 c3        1 MOL     -0.303514
     71 C24        -0.4880   -2.6310    0.6510 c         1 MOL      0.529232
     72 O13         0.1560   -3.0870   -0.2370 o         1 MOL     -0.500400
     73 H30         1.1190   -0.6680    0.1260 hn        1 MOL      0.191784
     74 H31        -0.7500   -0.6900    1.7020 h1        1 MOL      0.109220
     75 H32         0.1660   -2.1050    2.4900 h1        1 MOL      0.109220
     76 N7         -1.6670   -3.1080    1.1060 n         1 MOL     -0.355890
     77 C25        -2.1530   -4.3880    0.6790 c3        1 MOL      0.129224
     78 C26        -2.8680   -4.3070   -0.7010 c         1 MOL      0.414436
     79 O14        -3.3450   -5.2940   -1.2030 o         1 MOL     -0.498472
     80 C27        -3.0850   -4.9490    1.7560 c3        1 MOL     -0.167243
     81 C28        -2.2160   -5.4560    2.9170 c3        1 MOL     -0.083868
     82 C29        -2.9300   -6.1710    3.9470 c         1 MOL      0.724830
     83 N8         -2.2000   -6.8780    4.7120 n         1 MOL     -0.826726
     84 O15        -4.0660   -6.0310    4.1850 o         1 MOL     -0.586610
     85 H33        -2.1680   -2.4830    1.7100 hn        1 MOL      0.264151
     86 H34        -1.3640   -5.1210    0.4820 h1        1 MOL      0.119138
     87 H35        -3.6980   -5.7280    1.2870 hc        1 MOL      0.061548
     88 H36        -3.7000   -4.1280    2.1290 hc        1 MOL      0.061548
     89 H37        -1.5860   -4.6800    3.3470 hc        1 MOL      0.030117
     90 H38        -1.5310   -6.1110    2.3750 hc        1 MOL      0.030117
     91 H39        -1.1950   -6.7910    4.6140 hn        1 MOL      0.363953
     92 H40        -2.6660   -7.4850    5.3640 hn        1 MOL      0.363953
     93 N9         -2.9560   -3.1230   -1.3790 n         1 MOL     -0.336974
     94 C30        -3.3340   -2.9360   -2.7880 c3        1 MOL     -0.034466
     95 C31        -4.5260   -2.0760   -3.1310 c         1 MOL      0.537121
     96 O16        -4.7890   -1.6820   -4.2350 o         1 MOL     -0.555802
     97 C32        -2.0830   -2.5700   -3.5800 c3        1 MOL      0.220025
     98 C33        -1.0520   -3.7760   -3.5910 c3        1 MOL     -0.112744
     99 C34        -1.4330   -1.3160   -2.9620 c3        1 MOL     -0.112744
    100 H41        -2.7040   -2.2180   -1.0050 hn        1 MOL      0.125308
    101 H42        -3.7120   -3.8350   -3.2730 h1        1 MOL      0.093406
    102 H43        -2.3700   -2.4090   -4.6160 hc        1 MOL     -0.032809
    103 H44        -1.4930   -4.6120   -4.1240 hc        1 MOL      0.026091
    104 H45        -0.1910   -3.4570   -4.1880 hc        1 MOL      0.026091
    105 H46        -0.7570   -4.0380   -2.5700 hc        1 MOL      0.026091
    106 H47        -2.1190   -0.4780   -2.8460 hc        1 MOL      0.026091
    107 H48        -1.0040   -1.6290   -2.0120 hc        1 MOL      0.026091
    108 H49        -0.6560   -1.1140   -3.6890 hc        1 MOL      0.026091
    109 N10        -5.3290   -1.6780   -2.1440 n         1 MOL     -0.432856
    110 C35        -6.5160   -0.8630   -2.2650 c3        1 MOL      0.164619
    111 C36        -6.6750    0.4930   -1.5340 c         1 MOL      0.576491
    112 O17        -7.4350    1.3880   -1.9650 o         1 MOL     -0.572272
    113 C37        -7.7910   -1.6730   -2.0840 c3        1 MOL     -0.372568
    114 C38        -8.0460   -2.9180   -2.9360 c         1 MOL      0.719517
    115 N11        -8.0220   -2.8270   -4.2660 n         1 MOL     -0.810851
    116 O18        -8.3320   -4.0000   -2.4110 o         1 MOL     -0.573247
    117 H50        -5.1210   -2.0460   -1.2190 hn        1 MOL      0.269736
    118 H51        -6.5920   -0.5040   -3.2910 h1        1 MOL      0.055043
    119 H52        -8.6250   -1.0070   -2.3140 hc        1 MOL      0.095279
    120 H53        -7.8120   -1.9060   -1.0200 hc        1 MOL      0.095279
    121 H54        -7.5550   -2.0190   -4.6670 hn        1 MOL      0.373125
    122 H55        -8.3800   -3.6050   -4.7990 hn        1 MOL      0.373125
    123 N12        -5.8630    0.7310   -0.5140 n         1 MOL     -0.510423
    124 C39        -5.9210    1.9110    0.3870 c3        1 MOL      0.089467
    125 C40        -4.6130    2.6030    0.6280 c         1 MOL      0.534392
    126 O19        -3.6610    1.9630    0.9650 o         1 MOL     -0.484607
    127 C41        -6.6080    1.5950    1.7330 c3        1 MOL     -0.206054
    128 C42        -7.9260    0.9050    1.7290 ca        1 MOL      0.155940
    129 C43        -8.1400   -0.1390    2.6580 ca        1 MOL     -0.197029
    130 C44        -9.0540    1.4000    1.0010 ca        1 MOL     -0.197029
    131 C45        -9.3990   -0.7420    2.7590 ca        1 MOL     -0.239369
    132 C46       -10.2960    0.7680    1.1110 ca        1 MOL     -0.239369
    133 C47       -10.5040   -0.3860    1.9450 ca        1 MOL      0.294017
    134 O20       -11.6970   -1.0270    1.9920 oh        1 MOL     -0.463707
    135 H56        -5.3850   -0.0640   -0.1160 hn        1 MOL      0.284630
    136 H57        -6.5790    2.6670   -0.0320 h1        1 MOL      0.063558
    137 H58        -6.6600    2.5510    2.2640 hc        1 MOL      0.088883
    138 H59        -5.9070    0.9990    2.3150 hc        1 MOL      0.088883
    139 H60        -7.3250   -0.6270    3.1940 ha        1 MOL      0.152428
    140 H61        -8.9080    2.2350    0.3260 ha        1 MOL      0.152428
    141 H62        -9.7010   -1.5200    3.4430 ha        1 MOL      0.134598
    142 H63       -11.0540    1.2450    0.5050 ha        1 MOL      0.134598
    143 H64       -12.2690   -0.6640    1.3120 ho        1 MOL      0.353631
    144 N13        -4.5300    3.9870    0.5100 n         1 MOL     -0.562447
    145 C48        -3.3760    4.8010    0.9860 c3        1 MOL      0.183912
    146 C49        -2.0480    4.4570    0.2590 c         1 MOL      0.441797
    147 O21        -0.9850    4.4770    0.9410 o         1 MOL     -0.431656
    148 C50        -3.3910    4.9190    2.5000 c3        1 MOL      0.145050
    149 C51        -2.8850    6.2680    2.9910 c3        1 MOL     -0.476929
    150 C52        -3.0340    6.3670    4.5040 c         1 MOL      0.818008
    151 O22        -2.8920    5.4320    5.3250 o         1 MOL     -0.748554
    152 O23        -3.3110    7.5090    5.0250 o         1 MOL     -0.748554
    153 H65        -5.3160    4.4740    0.1080 hn        1 MOL      0.275842
    154 H66        -3.4620    5.8290    0.6320 h1        1 MOL      0.016430
    155 H67        -2.8830    4.0400    2.8980 hc        1 MOL      0.004726
    156 H68        -4.4190    4.8490    2.8450 hc        1 MOL      0.004726
    157 H69        -3.5430    6.9210    2.4140 hc        1 MOL      0.074610
    158 H70        -1.9120    6.5290    2.5640 hc        1 MOL      0.074610
    159 N14        -2.1270    4.2690   -1.0830 n         1 MOL     -0.465868
    160 C53        -1.0780    3.9720   -2.0130 c3        1 MOL     -0.116370
    161 C54        -1.2790    4.5730   -3.4300 c         1 MOL      0.476409
    162 O24        -0.3380    4.5870   -4.2540 o         1 MOL     -0.526422
    163 C55        -0.6970    2.4690   -2.2310 c3        1 MOL      0.010677
    164 C56        -0.2860    1.7130   -1.0040 c3        1 MOL      0.262371
    165 C57         1.0800    2.1940   -0.5360 c         1 MOL      0.731060
    166 O25         1.9770    2.5760   -1.3130 o         1 MOL     -0.754120
    167 O26         1.3300    2.1400    0.7060 o         1 MOL     -0.754120
    168 H71        -3.0770    4.1140   -1.4060 hn        1 MOL      0.247748
    169 H72        -0.1680    4.4740   -1.6740 h1        1 MOL      0.158667
    170 H73         0.0000    2.2920   -3.0400 hc        1 MOL     -0.014751
    171 H74        -1.5070    1.9000   -2.7060 hc        1 MOL     -0.014751
    172 H75        -0.2520    0.6570   -1.2580 hc        1 MOL     -0.073796
    173 H76        -0.9640    1.8300   -0.1580 hc        1 MOL     -0.073796
    174 N15        -2.4100    5.1410   -3.7890 n         1 MOL     -0.239751
    175 C58        -2.6980    5.9870   -4.9110 c3        1 MOL     -0.189762
    176 H77        -3.7580    5.9180   -5.1540 h1        1 MOL      0.090663
    177 H78        -2.4490    7.0180   -4.6630 h1        1 MOL      0.090663
    178 H79        -2.1070    5.6660   -5.7690 h1        1 MOL      0.090663
    179 H80        -3.0980    5.1420   -3.0500 hn        1 MOL      0.205193
    180 Ca1         3.9500    2.4540    0.6710 Ca        1 MOL      1.766437
    181 O27         2.7320    5.1950    0.2140 oh        1 MOL     -0.815424
    182 H81         1.9960    5.3800    0.7960 ho        1 MOL      0.395840
    183 H82         2.4120    5.4130   -0.6650 ho        1 MOL      0.395840
    184 O28         3.8800    4.2940    2.8200 oh        1 MOL     -0.815424
    185 H83         4.1230    3.7840    3.5900 ho        1 MOL      0.395840
    186 H84         4.0000    5.2050    3.0910 ho        1 MOL      0.395840
@<TRIPOS>BOND
     1    1    2 1   
     2    1    4 1   
     3    1    5 1   
     4    1    6 1   
     5    2    3 2   
     6    2    7 1   
     7    7    8 1   
     8    7   15 1   
     9    8    9 1   
    10    8   11 1   
    11    8   16 1   
    12    9   10 2   
    13    9   19 1   
    14   11   12 1   
    15   11   17 1   
    16   11   18 1   
    17   12   13 1   
    18   12   14 1   
    19   19   20 1   
    20   19   27 1   
    21   20   21 1   
    22   20   23 1   
    23   20   28 1   
    24   21   22 2   
    25   21   38 1   
    26   23   24 1   
    27   23   25 1   
    28   23   29 1   
    29   24   26 1   
    30   24   30 1   
    31   24   31 1   
    32   25   32 1   
    33   25   33 1   
    34   25   34 1   
    35   26   35 1   
    36   26   36 1   
    37   26   37 1   
    38   38   39 1   
    39   38   46 1   
    40   39   40 1   
    41   39   42 1   
    42   39   47 1   
    43   40   41 2   
    44   40   50 1   
    45   42   43 1   
    46   42   48 1   
    47   42   49 1   
    48   43   44 1   
    49   43   45 1   
    50   50   51 1   
    51   50   54 1   
    52   51   52 1   
    53   51   55 1   
    54   51   56 1   
    55   52   53 2   
    56   52   57 1   
    57   57   58 1   
    58   57   65 1   
    59   58   59 1   
    60   58   61 1   
    61   58   66 1   
    62   59   60 2   
    63   59   69 1   
    64   61   62 1   
    65   61   67 1   
    66   61   68 1   
    67   62   63 1   
    68   62   64 1   
    69   69   70 1   
    70   69   73 1   
    71   70   71 1   
    72   70   74 1   
    73   70   75 1   
    74   71   72 2   
    75   71   76 1   
    76   76   77 1   
    77   76   85 1   
    78   77   78 1   
    79   77   80 1   
    80   77   86 1   
    81   78   79 2   
    82   78   93 1   
    83   80   81 1   
    84   80   87 1   
    85   80   88 1   
    86   81   82 1   
    87   81   89 1   
    88   81   90 1   
    89   82   83 1   
    90   82   84 2   
    91   83   91 1   
    92   83   92 1   
    93   93   94 1   
    94   93  100 1   
    95   94   95 1   
    96   94   97 1   
    97   94  101 1   
    98   95   96 2   
    99   95  109 1   
   100   97   98 1   
   101   97   99 1   
   102   97  102 1   
   103   98  103 1   
   104   98  104 1   
   105   98  105 1   
   106   99  106 1   
   107   99  107 1   
   108   99  108 1   
   109  109  110 1   
   110  109  117 1   
   111  110  111 1   
   112  110  113 1   
   113  110  118 1   
   114  111  112 2   
   115  111  123 1   
   116  113  114 1   
   117  113  119 1   
   118  113  120 1   
   119  114  115 1   
   120  114  116 2   
   121  115  121 1   
   122  115  122 1   
   123  123  124 1   
   124  123  135 1   
   125  124  125 1   
   126  124  127 1   
   127  124  136 1   
   128  125  126 2   
   129  125  144 1   
   130  127  128 1   
   131  127  137 1   
   132  127  138 1   
   133  128  129 ar  
   134  128  130 ar  
   135  129  131 ar  
   136  129  139 1   
   137  130  132 ar  
   138  130  140 1   
   139  131  133 ar  
   140  131  141 1   
   141  132  133 ar  
   142  132  142 1   
   143  133  134 1   
   144  134  143 1   
   145  144  145 1   
   146  144  153 1   
   147  145  146 1   
   148  145  148 1   
   149  145  154 1   
   150  146  147 2   
   151  146  159 1   
   152  148  149 1   
   153  148  155 1   
   154  148  156 1   
   155  149  150 1   
   156  149  157 1   
   157  149  158 1   
   158  150  151 1   
   159  150  152 1   
   160  159  160 1   
   161  159  168 1   
   162  160  161 1   
   163  160  163 1   
   164  160  169 1   
   165  161  162 2   
   166  161  174 1   
   167  163  164 1   
   168  163  170 1   
   169  163  171 1   
   170  164  165 1   
   171  164  172 1   
   172  164  173 1   
   173  165  166 1   
   174  165  167 1   
   175  174  175 1   
   176  174  179 1   
   177  175  176 1   
   178  175  177 1   
   179  175  178 1   
   180  181  182 1   
   181  181  183 1   
   182  184  185 1   
   183  184  186 1   
@<TRIPOS>SUBSTRUCTURE
     1 MOL         1 TEMP              0 ****  ****    0 ROOT
