@<TRIPOS>MOLECULE
MOL
  178   175     1     0     0
SMALL
resp


@<TRIPOS>ATOM
      1 C1          0.8020   -5.1940    3.8950 c3        1 MOL     -0.401461
      2 C2          2.0410   -4.8240    3.1710 c         1 MOL      0.684249
      3 O1          2.2640   -5.4420    2.1230 o         1 MOL     -0.549925
      4 H1          0.7870   -6.2720    4.0620 hc        1 MOL      0.097974
      5 H2          0.7740   -4.6780    4.8550 hc        1 MOL      0.097974
      6 H3         -0.0660   -4.9070    3.3020 hc        1 MOL      0.097974
      7 N1          2.8550   -3.8870    3.7280 n         1 MOL     -0.506195
      8 C3          4.2100   -3.7330    3.3060 c3        1 MOL      0.106923
      9 C4          4.3070   -3.3900    1.8120 c         1 MOL      0.382837
     10 O2          3.8810   -2.3460    1.3680 o         1 MOL     -0.467152
     11 C5          5.0480   -2.6370    4.0050 c3        1 MOL     -0.301558
     12 C6          6.5140   -2.5160    3.5240 c         1 MOL      0.850059
     13 O3          7.1460   -3.5770    3.3800 o         1 MOL     -0.762069
     14 O4          7.0410   -1.3980    3.5080 o         1 MOL     -0.762069
     15 H4          2.5480   -3.3280    4.5060 hn        1 MOL      0.308894
     16 H5          4.7020   -4.6950    3.3990 h1        1 MOL      0.042526
     17 H6          5.2260   -2.8610    5.0540 hc        1 MOL      0.046913
     18 H7          4.5960   -1.6520    3.9160 hc        1 MOL      0.046913
     19 N2          4.7940   -4.3230    0.9700 n         1 MOL     -0.448878
     20 C7          4.9630   -4.1780   -0.4660 c3        1 MOL      0.440154
     21 C8          3.6610   -4.4510   -1.3390 c         1 MOL      0.417728
     22 O5          2.9860   -5.3740   -0.9560 o         1 MOL     -0.523557
     23 C9          6.1160   -5.0420   -0.9870 c3        1 MOL     -0.348142
     24 H8          5.1750   -5.1570    1.3770 hn        1 MOL      0.281771
     25 H9          5.2470   -3.1410   -0.6350 h1        1 MOL      0.021618
     26 H10         6.0700   -6.0380   -0.5370 hc        1 MOL      0.078733
     27 H11         6.2590   -5.1960   -2.0550 hc        1 MOL      0.078733
     28 H12         7.0670   -4.5740   -0.7620 hc        1 MOL      0.078733
     29 N3          3.3800   -3.7490   -2.4830 n         1 MOL     -0.444946
     30 C10         4.2730   -2.8350   -3.1940 c3        1 MOL     -0.015253
     31 C11         4.3960   -1.4900   -2.4210 c         1 MOL      0.211136
     32 O6          3.4790   -1.0380   -1.7490 o         1 MOL     -0.351964
     33 C12         3.6880   -2.5930   -4.6250 c3        1 MOL     -0.063944
     34 C13         2.2650   -2.1750   -4.5900 c         1 MOL      0.790867
     35 O7          1.5110   -2.6360   -5.4960 o         1 MOL     -0.726215
     36 O8          1.8260   -1.3050   -3.7950 o         1 MOL     -0.726215
     37 H13         2.6090   -4.1600   -2.9980 hn        1 MOL      0.289966
     38 H14         5.2750   -3.2470   -3.3320 h1        1 MOL      0.049862
     39 H15         3.7120   -3.4630   -5.2770 hc        1 MOL      0.007984
     40 H16         4.2370   -1.7920   -5.1120 hc        1 MOL      0.007984
     41 N4          5.4470   -0.6990   -2.6890 n         1 MOL     -0.297721
     42 C14         5.6680    0.5930   -2.0800 c3        1 MOL     -0.088933
     43 C15         6.0420    0.4060   -0.5840 c         1 MOL      0.546896
     44 O9          6.3180   -0.6750   -0.1140 o         1 MOL     -0.459835
     45 H17         6.2240   -1.0980   -3.2090 hn        1 MOL      0.253851
     46 H18         4.7900    1.2270   -2.1900 h1        1 MOL      0.122747
     47 H19         6.4370    1.1570   -2.6200 h1        1 MOL      0.122747
     48 N5          6.2570    1.5440    0.1320 n         1 MOL     -0.617273
     49 C16         6.2760    2.9470   -0.3640 c3        1 MOL      0.131295
     50 C17         5.4510    3.9480    0.4820 c         1 MOL      0.617775
     51 O10         5.5270    5.1370    0.0660 o         1 MOL     -0.534337
     52 C18         7.7500    3.4160   -0.5590 c3        1 MOL     -0.381903
     53 C19         8.5430    2.5220   -1.4790 c         1 MOL      0.717617
     54 N6          9.5670    1.8660   -1.0180 n         1 MOL     -0.792613
     55 O11         8.4380    2.5210   -2.7480 o         1 MOL     -0.593634
     56 H20         6.4010    1.3530    1.1200 hn        1 MOL      0.336539
     57 H21         5.8110    3.0110   -1.3440 h1        1 MOL      0.054377
     58 H22         8.1650    3.3850    0.4540 hc        1 MOL      0.119762
     59 H23         7.7210    4.4090   -1.0040 hc        1 MOL      0.119762
     60 H24         9.6340    1.6960   -0.0180 hn        1 MOL      0.380159
     61 H25        10.0510    1.3790   -1.7510 hn        1 MOL      0.380159
     62 N7          4.8510    3.5060    1.5570 n         1 MOL     -0.430384
     63 C20         4.4040    4.4880    2.5530 c3        1 MOL     -0.041633
     64 C21         3.1400    5.2850    2.2020 c         1 MOL      0.524764
     65 O12         3.0500    6.4220    2.6700 o         1 MOL     -0.523166
     66 H26         4.8040    2.5770    1.9590 hn        1 MOL      0.321004
     67 H27         5.1820    5.2480    2.6300 h1        1 MOL      0.074219
     68 H28         4.2750    4.1250    3.5740 h1        1 MOL      0.074219
     69 N8          2.2360    4.7040    1.2850 n         1 MOL     -0.427150
     70 C22         0.8710    5.2540    1.0400 c3        1 MOL      0.047180
     71 C23        -0.1660    4.1190    0.8650 c         1 MOL      0.352029
     72 O13         0.1850    2.9890    0.5700 o         1 MOL     -0.430044
     73 C24         0.8330    6.0000   -0.3490 c3        1 MOL      0.326681
     74 C25         1.9300    7.1000   -0.4850 c3        1 MOL     -0.374399
     75 O14         1.2090    5.1090   -1.4460 oh        1 MOL     -0.548054
     76 H29         2.6610    3.9420    0.7820 hn        1 MOL      0.270227
     77 H30         0.5510    5.9530    1.8190 h1        1 MOL      0.061755
     78 H31        -0.1300    6.4050   -0.6390 h1        1 MOL      0.009794
     79 H32         0.5000    5.2820   -2.0810 ho        1 MOL      0.384450
     80 H33         1.8770    7.3770   -1.5350 hc        1 MOL      0.090301
     81 H34         1.5730    7.9880    0.0290 hc        1 MOL      0.090301
     82 H35         2.9150    6.8010   -0.1180 hc        1 MOL      0.090301
     83 N9         -1.4020    4.4820    1.1200 n         1 MOL     -0.269910
     84 C26        -2.5690    3.6910    0.8290 c3        1 MOL     -0.500054
     85 C27        -2.8800    3.6850   -0.6090 c         1 MOL      0.769366
     86 O15        -2.9530    4.7360   -1.2060 o         1 MOL     -0.591466
     87 C28        -3.7080    4.1160    1.7930 c3        1 MOL      0.011646
     88 C29        -5.0880    3.4690    1.5260 c3        1 MOL      0.174227
     89 C30        -3.2500    3.9510    3.3050 c3        1 MOL     -0.200665
     90 C31        -6.1550    4.0770    2.4290 c3        1 MOL     -0.180317
     91 H36        -1.5180    5.4850    1.1630 hn        1 MOL      0.230783
     92 H37        -2.2890    2.6650    1.0860 h1        1 MOL      0.437496
     93 H38        -3.7590    5.1650    1.4920 hc        1 MOL      0.059984
     94 H39        -5.0250    2.3910    1.6920 hc        1 MOL     -0.034992
     95 H40        -5.3610    3.6070    0.4830 hc        1 MOL     -0.034992
     96 H41        -3.4910    2.9790    3.7410 hc        1 MOL      0.055539
     97 H42        -2.2500    4.2090    3.6250 hc        1 MOL      0.055539
     98 H43        -3.8360    4.6590    3.8970 hc        1 MOL      0.055539
     99 H44        -6.0970    3.7840    3.4800 hc        1 MOL      0.025346
    100 H45        -5.9000    5.1330    2.3540 hc        1 MOL      0.025346
    101 H46        -7.1340    3.6990    2.1140 hc        1 MOL      0.025346
    102 N10        -3.0360    2.4830   -1.2150 n         1 MOL     -0.354029
    103 C32        -3.4030    2.2500   -2.6010 c3        1 MOL     -0.245097
    104 C33        -4.3440    1.0510   -2.7540 c         1 MOL      0.587116
    105 O16        -4.7630    0.5860   -3.8550 o         1 MOL     -0.553545
    106 C34        -2.1180    2.0810   -3.5520 c3        1 MOL     -0.012512
    107 C35        -1.1780    1.0270   -3.0240 c         1 MOL      0.695928
    108 O17         0.0550    1.3280   -2.7710 o         1 MOL     -0.735353
    109 O18        -1.5780   -0.1390   -2.7840 o         1 MOL     -0.735353
    110 H47        -2.6170    1.8040   -0.6120 hn        1 MOL      0.251206
    111 H48        -3.8690    3.1830   -2.9090 h1        1 MOL      0.137914
    112 H49        -1.6070    3.0460   -3.6180 hc        1 MOL      0.029256
    113 H50        -2.2790    1.7880   -4.5920 hc        1 MOL      0.029256
    114 N11        -4.8240    0.4850   -1.6110 n         1 MOL     -0.389305
    115 C36        -5.9750   -0.4020   -1.5130 c3        1 MOL      0.418201
    116 C37        -5.8260   -1.3560   -0.3460 c         1 MOL      0.317324
    117 O19        -6.5620   -1.2030    0.6230 o         1 MOL     -0.539986
    118 C38        -7.2310    0.4600   -1.4950 c3        1 MOL     -0.330687
    119 C39        -8.5380   -0.2370   -1.8310 ca        1 MOL      0.094594
    120 C40        -9.4610   -0.7530   -0.8680 ca        1 MOL     -0.091893
    121 C41        -8.8910   -0.2570   -3.1950 ca        1 MOL     -0.091893
    122 C42       -10.6640   -1.3160   -1.3170 ca        1 MOL     -0.192370
    123 C43       -10.0890   -0.8360   -3.6310 ca        1 MOL     -0.192370
    124 C44       -10.9620   -1.3860   -2.7000 ca        1 MOL     -0.080448
    125 H51        -4.2240    0.6910   -0.8300 hn        1 MOL      0.118385
    126 H52        -5.9980   -0.9890   -2.4300 h1        1 MOL     -0.026425
    127 H53        -7.0480    1.3130   -2.1400 hc        1 MOL      0.095577
    128 H54        -7.4070    0.8270   -0.4730 hc        1 MOL      0.095577
    129 H55        -9.3190   -0.7010    0.2070 ha        1 MOL      0.117950
    130 H56        -8.3450    0.2700   -3.9680 ha        1 MOL      0.117950
    131 H57       -11.3450   -1.7050   -0.5760 ha        1 MOL      0.118223
    132 H58       -10.2440   -0.9290   -4.6910 ha        1 MOL      0.118223
    133 H59       -11.8810   -1.7500   -3.1390 ha        1 MOL      0.083370
    134 N12        -4.9900   -2.4060   -0.3700 n         1 MOL     -0.145474
    135 C45        -4.8410   -3.4230    0.6680 c3        1 MOL      0.270967
    136 C46        -4.6010   -2.8890    2.0370 c         1 MOL      0.131472
    137 O20        -5.0100   -3.5210    3.0120 o         1 MOL     -0.484507
    138 C47        -3.7820   -4.4170    0.2100 c3        1 MOL     -0.375227
    139 C48        -2.9730   -3.7200   -0.8500 c3        1 MOL      0.085940
    140 C49        -3.9570   -2.6660   -1.4030 c3        1 MOL     -0.200307
    141 H60        -5.7750   -3.9900    0.7170 h1        1 MOL      0.031199
    142 H61        -3.1190   -4.7520    1.0040 hc        1 MOL      0.120535
    143 H62        -4.3260   -5.2020   -0.3160 hc        1 MOL      0.120535
    144 H63        -2.0820   -3.2490   -0.4430 hc        1 MOL      0.048187
    145 H64        -2.7290   -4.4600   -1.6030 hc        1 MOL      0.048187
    146 H65        -3.4130   -1.7370   -1.5780 h1        1 MOL      0.102095
    147 H66        -4.4420   -3.1320   -2.2580 h1        1 MOL      0.102095
    148 N13        -3.9240   -1.7530    2.2300 n         1 MOL      0.010974
    149 C50        -3.6730   -1.0760    3.5000 c3        1 MOL     -0.129045
    150 C51        -5.0100   -0.8020    4.2430 c         1 MOL      0.434843
    151 O21        -5.1670   -1.0990    5.4290 o         1 MOL     -0.549319
    152 C52        -2.9510    0.2490    3.3930 c3        1 MOL      0.102759
    153 C53        -1.6240    0.2930    2.5540 c3        1 MOL     -0.228004
    154 C54        -1.7190   -0.0770    1.0410 c         1 MOL      0.413025
    155 O22        -0.6520   -0.3570    0.4170 o         1 MOL     -0.594937
    156 O23        -2.7970    0.1610    0.4390 o         1 MOL     -0.594937
    157 H67        -3.6550   -1.2190    1.4200 hn        1 MOL      0.251172
    158 H68        -3.1450   -1.7620    4.1660 h1        1 MOL      0.084772
    159 H69        -2.8450    0.6960    4.3810 hc        1 MOL     -0.016329
    160 H70        -3.6700    0.9250    2.9180 hc        1 MOL     -0.016329
    161 H71        -0.9520   -0.4490    2.9830 hc        1 MOL      0.054555
    162 H72        -1.2580    1.3190    2.5340 hc        1 MOL      0.054555
    163 N14        -6.0310   -0.3770    3.4970 n         1 MOL     -0.076073
    164 C55        -7.3450   -0.1090    4.0180 c3        1 MOL     -0.450118
    165 H73        -7.3470    0.8620    4.5150 h1        1 MOL      0.143372
    166 H74        -8.0660   -0.1000    3.2010 h1        1 MOL      0.143372
    167 H75        -7.6170   -0.8840    4.7350 h1        1 MOL      0.143372
    168 H76        -5.8880   -0.0780    2.5450 hn        1 MOL      0.258703
    169 Ca1         0.6080   -0.9050   -1.6200 Ca        1 MOL      1.745795
    170 O24         1.4840   -2.5630    0.2480 oh        1 MOL     -0.852962
    171 H77         1.3050   -3.5130    0.2620 ho        1 MOL      0.391612
    172 H78         2.2900   -2.4660    0.7440 ho        1 MOL      0.391612
    173 O25         0.2770   -3.3340   -2.5410 oh        1 MOL     -0.852962
    174 H79         0.5400   -3.6700   -3.3990 ho        1 MOL      0.391612
    175 H80        -0.0070   -4.1100   -2.0580 ho        1 MOL      0.391612
    176 O26         2.0150    0.9960   -0.4390 oh        1 MOL     -0.852962
    177 H81         2.6810    0.8690    0.2420 ho        1 MOL      0.391612
    178 H82         1.2850    1.4220    0.0060 ho        1 MOL      0.391612
@<TRIPOS>BOND
     1    1    2 1   
     2    1    4 1   
     3    1    5 1   
     4    1    6 1   
     5    2    3 2   
     6    2    7 1   
     7    7    8 1   
     8    7   15 1   
     9    8    9 1   
    10    8   11 1   
    11    8   16 1   
    12    9   10 2   
    13    9   19 1   
    14   11   12 1   
    15   11   17 1   
    16   11   18 1   
    17   12   13 1   
    18   12   14 1   
    19   19   20 1   
    20   19   24 1   
    21   20   21 1   
    22   20   23 1   
    23   20   25 1   
    24   21   22 2   
    25   21   29 1   
    26   23   26 1   
    27   23   27 1   
    28   23   28 1   
    29   29   30 1   
    30   29   37 1   
    31   30   31 1   
    32   30   33 1   
    33   30   38 1   
    34   31   32 2   
    35   31   41 1   
    36   33   34 1   
    37   33   39 1   
    38   33   40 1   
    39   34   35 1   
    40   34   36 1   
    41   41   42 1   
    42   41   45 1   
    43   42   43 1   
    44   42   46 1   
    45   42   47 1   
    46   43   44 2   
    47   43   48 1   
    48   48   49 1   
    49   48   56 1   
    50   49   50 1   
    51   49   52 1   
    52   49   57 1   
    53   50   51 2   
    54   50   62 1   
    55   52   53 1   
    56   52   58 1   
    57   52   59 1   
    58   53   54 1   
    59   53   55 2   
    60   54   60 1   
    61   54   61 1   
    62   62   63 1   
    63   62   66 1   
    64   63   64 1   
    65   63   67 1   
    66   63   68 1   
    67   64   65 2   
    68   64   69 1   
    69   69   70 1   
    70   69   76 1   
    71   70   71 1   
    72   70   73 1   
    73   70   77 1   
    74   71   72 2   
    75   71   83 1   
    76   73   74 1   
    77   73   75 1   
    78   73   78 1   
    79   74   80 1   
    80   74   81 1   
    81   74   82 1   
    82   75   79 1   
    83   83   84 1   
    84   83   91 1   
    85   84   85 1   
    86   84   87 1   
    87   84   92 1   
    88   85   86 2   
    89   85  102 1   
    90   87   88 1   
    91   87   89 1   
    92   87   93 1   
    93   88   90 1   
    94   88   94 1   
    95   88   95 1   
    96   89   96 1   
    97   89   97 1   
    98   89   98 1   
    99   90   99 1   
   100   90  100 1   
   101   90  101 1   
   102  102  103 1   
   103  102  110 1   
   104  103  104 1   
   105  103  106 1   
   106  103  111 1   
   107  104  105 2   
   108  104  114 1   
   109  106  107 1   
   110  106  112 1   
   111  106  113 1   
   112  107  108 1   
   113  107  109 1   
   114  114  115 1   
   115  114  125 1   
   116  115  116 1   
   117  115  118 1   
   118  115  126 1   
   119  116  117 2   
   120  116  134 1   
   121  118  119 1   
   122  118  127 1   
   123  118  128 1   
   124  119  120 ar  
   125  119  121 ar  
   126  120  122 ar  
   127  120  129 1   
   128  121  123 ar  
   129  121  130 1   
   130  122  124 ar  
   131  122  131 1   
   132  123  124 ar  
   133  123  132 1   
   134  124  133 1   
   135  134  135 1   
   136  134  140 1   
   137  135  136 1   
   138  135  138 1   
   139  135  141 1   
   140  136  137 2   
   141  136  148 1   
   142  138  139 1   
   143  138  142 1   
   144  138  143 1   
   145  139  140 1   
   146  139  144 1   
   147  139  145 1   
   148  140  146 1   
   149  140  147 1   
   150  148  149 1   
   151  148  157 1   
   152  149  150 1   
   153  149  152 1   
   154  149  158 1   
   155  150  151 2   
   156  150  163 1   
   157  152  153 1   
   158  152  159 1   
   159  152  160 1   
   160  153  154 1   
   161  153  161 1   
   162  153  162 1   
   163  154  155 1   
   164  154  156 1   
   165  163  164 1   
   166  163  168 1   
   167  164  165 1   
   168  164  166 1   
   169  164  167 1   
   170  170  171 1   
   171  170  172 1   
   172  173  174 1   
   173  173  175 1   
   174  176  177 1   
   175  176  178 1   
@<TRIPOS>SUBSTRUCTURE
     1 MOL         1 TEMP              0 ****  ****    0 ROOT
