@<TRIPOS>MOLECULE
MOL
  191   184     1     0     0
SMALL
resp


@<TRIPOS>ATOM
      1 C1          1.0490    1.4120    2.8020 c3        1 MOL     -0.143793
      2 C2          2.2050    0.7890    1.9550 c         1 MOL      0.559775
      3 O1          2.5160    1.2690    0.8850 o         1 MOL     -0.541668
      4 H1          0.5390    2.1750    2.2140 hc        1 MOL      0.037456
      5 H2          0.3390    0.6310    3.0780 hc        1 MOL      0.037456
      6 H3          1.4610    1.8640    3.7040 hc        1 MOL      0.037456
      7 N1          2.9790   -0.1580    2.5190 n         1 MOL     -0.333140
      8 C3          4.1650   -0.7380    1.8730 c3        1 MOL      0.009215
      9 C4          3.9570   -2.1770    1.2760 c         1 MOL      0.377231
     10 O2          4.8510   -2.7880    0.6740 o         1 MOL     -0.421273
     11 C5          5.3650   -0.6450    2.8240 c3        1 MOL     -0.173657
     12 C6          4.9920   -1.1810    4.2410 c         1 MOL      0.686075
     13 O3          5.7180   -0.8590    5.2030 o         1 MOL     -0.678919
     14 O4          3.9210   -1.7680    4.5630 o         1 MOL     -0.678919
     15 H4          2.7180   -0.5340    3.4150 hn        1 MOL      0.211364
     16 H5          4.4040   -0.2130    0.9380 h1        1 MOL      0.093690
     17 H6          5.6800    0.3630    3.0690 hc        1 MOL      0.083234
     18 H7          6.2220   -1.2240    2.4600 hc        1 MOL      0.083234
     19 N2          2.7620   -2.6450    1.4590 n         1 MOL     -0.414600
     20 C7          2.3790   -4.0120    0.9730 c3        1 MOL      0.007302
     21 C8          2.7640   -4.3720   -0.4470 c         1 MOL      0.589518
     22 O5          2.8630   -5.5310   -0.7850 o         1 MOL     -0.540671
     23 C9          2.8820   -5.0270    1.9840 c3        1 MOL     -0.283470
     24 C10         2.6040   -4.5990    3.4920 c3        1 MOL      0.086561
     25 C11         3.4170   -5.4900    4.4560 c3        1 MOL      0.083993
     26 C12         3.2880   -5.1920    5.9230 c3        1 MOL     -0.053085
     27 N3          3.7770   -3.8860    6.1760 n4        1 MOL     -0.153184
     28 H8          2.1760   -2.1410    2.1210 hn        1 MOL      0.276989
     29 H9          1.3020   -4.1610    0.9820 h1        1 MOL      0.131833
     30 H10         3.9560   -5.0490    1.7830 hc        1 MOL      0.088936
     31 H11         2.5010   -6.0040    1.7100 hc        1 MOL      0.088936
     32 H12         1.5950   -4.6630    3.9080 hc        1 MOL     -0.007194
     33 H13         2.8770   -3.5440    3.6050 hc        1 MOL     -0.007194
     34 H14         4.4530   -5.5610    4.1270 hc        1 MOL      0.004578
     35 H15         3.0520   -6.5060    4.2960 hc        1 MOL      0.004578
     36 H16         3.8810   -5.9270    6.4740 hx        1 MOL      0.060491
     37 H17         2.2050   -5.2280    6.1070 hx        1 MOL      0.060491
     38 H18         3.4560   -3.1900    5.5230 hn        1 MOL      0.262027
     39 H19         3.4820   -3.6000    7.0970 hn        1 MOL      0.262027
     40 H20         4.7720   -3.7890    6.0750 hn        1 MOL      0.262027
     41 N4          2.8820   -3.3450   -1.2680 n         1 MOL     -0.426996
     42 C13         3.0920   -3.5070   -2.7680 c3        1 MOL      0.114025
     43 C14         4.3120   -2.7420   -3.3220 c         1 MOL      0.450225
     44 O6          4.5060   -2.6350   -4.5080 o         1 MOL     -0.563951
     45 C15         1.7980   -3.1830   -3.5280 c3        1 MOL     -0.179466
     46 C16         0.7110   -4.1040   -3.1630 c         1 MOL      0.752058
     47 O7          0.5900   -5.2420   -3.6830 o         1 MOL     -0.752173
     48 O8         -0.1310   -3.6240   -2.3610 o         1 MOL     -0.752173
     49 H21         2.6050   -2.4230   -0.9780 hn        1 MOL      0.275967
     50 H22         3.3790   -4.5460   -2.9280 h1        1 MOL      0.102361
     51 H23         1.8980   -3.2750   -4.6130 hc        1 MOL      0.052743
     52 H24         1.4550   -2.1730   -3.2910 hc        1 MOL      0.052743
     53 N5          5.1560   -2.3530   -2.4290 n         1 MOL     -0.207622
     54 C17         6.3520   -1.5330   -2.6710 c3        1 MOL     -0.011662
     55 C18         7.3290   -1.4770   -1.4180 c         1 MOL      0.507658
     56 O9          7.6800   -2.5480   -0.9510 o         1 MOL     -0.508523
     57 H25         4.9550   -2.6670   -1.4840 hn        1 MOL      0.151545
     58 H26         5.9270   -0.5660   -2.9410 h1        1 MOL      0.054355
     59 H27         6.8800   -1.9190   -3.5440 h1        1 MOL      0.054355
     60 N6          7.7180   -0.3630   -0.7970 n         1 MOL     -0.512376
     61 C19         7.1760    0.9610   -1.0640 c3        1 MOL      0.144773
     62 C20         6.9650    1.7870    0.1680 c         1 MOL      0.569635
     63 O10         7.6930    1.5540    1.1270 o         1 MOL     -0.561323
     64 C21         8.0890    1.7220   -1.9440 c3        1 MOL     -0.299079
     65 C22         8.4820    1.0770   -3.2900 c         1 MOL      0.648793
     66 N7          8.1420    1.6470   -4.3880 n         1 MOL     -0.727991
     67 O11         9.2320    0.1180   -3.3720 o         1 MOL     -0.527797
     68 H28         8.3310   -0.4530    0.0060 hn        1 MOL      0.352802
     69 H29         6.2500    0.9040   -1.6370 h1        1 MOL      0.094406
     70 H30         8.9590    2.0820   -1.4080 hc        1 MOL      0.084907
     71 H31         7.6150    2.6650   -2.2080 hc        1 MOL      0.084907
     72 H32         7.5580    2.4680   -4.3950 hn        1 MOL      0.343239
     73 H33         8.2420    1.1750   -5.2760 hn        1 MOL      0.343239
     74 N8          5.9250    2.5690    0.2710 n         1 MOL     -0.512705
     75 C23         4.8400    2.7710   -0.6710 c3        1 MOL      0.017581
     76 C24         4.0540    3.9550   -0.1560 c         1 MOL      0.720974
     77 O12         4.5250    4.7940    0.6300 o         1 MOL     -0.565490
     78 H34         5.8430    3.1000    1.1200 hn        1 MOL      0.323043
     79 H35         4.2320    1.8730   -0.7070 h1        1 MOL     -0.002635
     80 H36         5.1350    2.9000   -1.7160 h1        1 MOL     -0.002635
     81 N9          2.8170    4.0290   -0.6890 n         1 MOL     -0.677030
     82 C25         1.8520    5.0880   -0.3310 c3        1 MOL      0.240533
     83 C26         0.3840    4.5670   -0.1320 c         1 MOL      0.572441
     84 O13         0.0290    3.5300   -0.7010 o         1 MOL     -0.524669
     85 C27         1.9700    6.2160   -1.4190 c3        1 MOL     -0.171647
     86 C28         1.2690    7.4920   -1.0400 ca        1 MOL     -0.027501
     87 C29         0.0220    7.8740   -1.6080 ca        1 MOL     -0.058612
     88 C30         1.7760    8.1760    0.0580 ca        1 MOL     -0.058612
     89 C31        -0.7120    8.8990   -1.0070 ca        1 MOL     -0.334372
     90 C32         1.0910    9.2510    0.6690 ca        1 MOL     -0.334372
     91 C33        -0.1830    9.5420    0.1350 ca        1 MOL      0.395457
     92 O14        -0.9240   10.5840    0.6880 oh        1 MOL     -0.507849
     93 H37         2.6160    3.2750   -1.3320 hn        1 MOL      0.341186
     94 H38         2.1070    5.5010    0.6510 h1        1 MOL      0.026969
     95 H39         1.5600    5.8690   -2.3630 hc        1 MOL      0.079116
     96 H40         3.0270    6.4320   -1.6180 hc        1 MOL      0.079116
     97 H41        -0.4130    7.2830   -2.4020 ha        1 MOL      0.118076
     98 H42         2.6930    7.8050    0.4940 ha        1 MOL      0.118076
     99 H43        -1.6720    9.2210   -1.3850 ha        1 MOL      0.167587
    100 H44         1.4360    9.7210    1.5700 ha        1 MOL      0.167587
    101 H45        -0.4410   11.0240    1.3990 ho        1 MOL      0.357712
    102 N10        -0.4250    5.3470    0.5630 n         1 MOL     -0.430313
    103 C34        -1.8430    4.9510    0.8400 c3        1 MOL     -0.122856
    104 C35        -2.8290    5.0270   -0.3740 c         1 MOL      0.651918
    105 O15        -2.8090    5.9140   -1.2710 o         1 MOL     -0.494517
    106 C36        -2.4800    5.7350    2.0900 c3        1 MOL      0.052837
    107 C37        -1.7130    5.4580    3.4410 c3        1 MOL      0.043697
    108 C38        -2.4010    7.2640    1.7330 c3        1 MOL     -0.016536
    109 C39        -2.4970    5.8080    4.7310 c3        1 MOL     -0.332994
    110 H46         0.0090    6.0880    1.1060 hn        1 MOL      0.234844
    111 H47        -1.8500    3.9110    1.1600 h1        1 MOL      0.089580
    112 H48        -3.4990    5.3680    2.2010 hc        1 MOL      0.041641
    113 H49        -0.7680    5.9970    3.3980 hc        1 MOL      0.024640
    114 H50        -1.5470    4.3820    3.4710 hc        1 MOL      0.024640
    115 H51        -1.3920    7.6350    1.6000 hc        1 MOL      0.008605
    116 H52        -2.9650    7.4570    0.8170 hc        1 MOL      0.008605
    117 H53        -2.9100    7.9270    2.4250 hc        1 MOL      0.008605
    118 H54        -3.4580    5.2940    4.7790 hc        1 MOL      0.086471
    119 H55        -1.7500    5.6400    5.5130 hc        1 MOL      0.086471
    120 H56        -2.7310    6.8680    4.8160 hc        1 MOL      0.086471
    121 N11        -3.7560    4.0860   -0.4760 n         1 MOL     -0.528969
    122 C40        -4.8180    3.9030   -1.4160 c3        1 MOL     -0.038433
    123 C41        -4.9810    2.3900   -1.8050 c         1 MOL      0.749309
    124 O16        -4.5690    1.4670   -1.0630 o         1 MOL     -0.543751
    125 C42        -6.0730    4.5990   -0.9610 c3        1 MOL      0.127803
    126 O17        -6.4980    4.0060    0.2360 oh        1 MOL     -0.593797
    127 H57        -3.8550    3.4870    0.3260 hn        1 MOL      0.305010
    128 H58        -4.5930    4.4050   -2.3620 h1        1 MOL      0.066954
    129 H59        -6.9130    4.6910   -1.6550 h1        1 MOL      0.029380
    130 H60        -5.8160    5.6380   -0.7400 h1        1 MOL      0.029380
    131 H61        -7.2530    4.5140    0.5550 ho        1 MOL      0.411257
    132 N12        -5.6720    2.2150   -2.9190 n         1 MOL     -0.672370
    133 C43        -6.2220    0.9370   -3.2700 c3        1 MOL      0.235737
    134 C44        -6.6390   -0.1330   -2.1920 c         1 MOL      0.393949
    135 O18        -6.0400   -1.1560   -2.0530 o         1 MOL     -0.383495
    136 C45        -5.2690    0.3930   -4.3130 c3        1 MOL     -0.273854
    137 H62        -5.7510    2.9660   -3.5950 hn        1 MOL      0.360908
    138 H63        -7.1310    1.2260   -3.7900 h1        1 MOL      0.044469
    139 H64        -4.4920   -0.2680   -3.9430 hc        1 MOL      0.083158
    140 H65        -5.8610   -0.1660   -5.0430 hc        1 MOL      0.083158
    141 H66        -4.8800    1.2560   -4.8480 hc        1 MOL      0.083158
    142 N13        -7.6380    0.2210   -1.3850 n         1 MOL     -0.527485
    143 C46        -8.4460   -0.6720   -0.5720 c3        1 MOL      0.285682
    144 C47        -7.5990   -1.8060    0.0660 c         1 MOL      0.280421
    145 O19        -7.9770   -2.9290    0.1170 o         1 MOL     -0.446340
    146 C48        -9.5540   -1.1390   -1.5210 c3        1 MOL     -0.324121
    147 H67        -8.1000    1.0960   -1.5640 hn        1 MOL      0.298071
    148 H68        -8.9520   -0.1670    0.2510 h1        1 MOL      0.019654
    149 H69        -9.9090   -0.3470   -2.1860 hc        1 MOL      0.091876
    150 H70        -9.1670   -1.8690   -2.2360 hc        1 MOL      0.091876
    151 H71       -10.3060   -1.6880   -0.9560 hc        1 MOL      0.091876
    152 N14        -6.4790   -1.4470    0.7300 n         1 MOL     -0.097599
    153 C49        -5.7250   -2.4420    1.4900 c3        1 MOL     -0.345256
    154 C50        -6.4450   -2.8220    2.7900 c         1 MOL      0.606812
    155 O20        -6.2800   -3.9260    3.1800 o         1 MOL     -0.497917
    156 C51        -4.4740   -1.6620    1.9080 c3        1 MOL      0.282756
    157 C52        -3.2890   -2.5150    2.4740 c3        1 MOL     -0.449670
    158 C53        -2.6310   -3.2340    1.2990 c         1 MOL      0.887265
    159 O21        -3.1760   -4.2660    0.7960 o         1 MOL     -0.782076
    160 O22        -1.5320   -2.9110    0.7420 o         1 MOL     -0.782076
    161 H72        -6.2100   -0.4800    0.8020 hn        1 MOL      0.157958
    162 H73        -5.5440   -3.3440    0.9070 h1        1 MOL      0.211034
    163 H74        -4.7250   -0.9260    2.6670 hc        1 MOL     -0.028365
    164 H75        -4.1320   -1.0560    1.0660 hc        1 MOL     -0.028365
    165 H76        -3.7230   -3.1570    3.2380 hc        1 MOL      0.094395
    166 H77        -2.4660   -1.8950    2.8460 hc        1 MOL      0.094395
    167 N15        -7.3030   -1.8870    3.4520 n         1 MOL     -0.374350
    168 C54        -8.1900   -2.2900    4.5840 c3        1 MOL     -0.146818
    169 H78        -7.7950   -3.1930    5.0510 h1        1 MOL      0.087344
    170 H79        -8.2270   -1.4870    5.3210 h1        1 MOL      0.087344
    171 H80        -9.1940   -2.4860    4.2080 h1        1 MOL      0.087344
    172 H81        -7.2390   -0.9120    3.1810 hn        1 MOL      0.225445
    173 Ca1        -2.1890   -4.6600   -1.4620 Ca        1 MOL      1.782744
    174 O23        -4.9060   -5.4970   -1.4390 oh        1 MOL     -0.833411
    175 H82        -5.2990   -6.3670   -1.5280 ho        1 MOL      0.403267
    176 H83        -5.4150   -5.0860   -0.7400 ho        1 MOL      0.403267
    177 O24        -2.5180   -6.8950   -0.1140 oh        1 MOL     -0.833411
    178 H84        -3.0680   -7.6790   -0.2610 ho        1 MOL      0.403267
    179 H85        -2.2170   -6.9850    0.7840 ho        1 MOL      0.403267
    180 O25        -1.5170   -6.5840   -3.0840 oh        1 MOL     -0.833411
    181 H86        -0.7510   -6.1990   -3.4960 ho        1 MOL      0.403267
    182 H87        -1.8610   -7.2030   -3.7340 ho        1 MOL      0.403267
    183 O26        -3.1120   -4.3770   -4.1840 oh        1 MOL     -0.833411
    184 H88        -3.1560   -5.2930   -4.4260 ho        1 MOL      0.403267
    185 H89        -3.4590   -3.9060   -4.9460 ho        1 MOL      0.403267
    186 O27         0.0960   -6.0040   -0.0480 oh        1 MOL     -0.833411
    187 H90         0.9040   -6.1190   -0.5370 ho        1 MOL      0.403267
    188 H91        -0.1610   -6.8870    0.2270 ho        1 MOL      0.403267
    189 O28        -3.5140   -2.1370   -1.5180 oh        1 MOL     -0.833411
    190 H92        -4.3940   -1.9300   -1.8230 ho        1 MOL      0.403267
    191 H93        -3.1040   -1.2890   -1.3590 ho        1 MOL      0.403267
@<TRIPOS>BOND
     1    1    2 1   
     2    1    4 1   
     3    1    5 1   
     4    1    6 1   
     5    2    3 2   
     6    2    7 1   
     7    7    8 1   
     8    7   15 1   
     9    8    9 1   
    10    8   11 1   
    11    8   16 1   
    12    9   10 2   
    13    9   19 1   
    14   11   12 1   
    15   11   17 1   
    16   11   18 1   
    17   12   13 1   
    18   12   14 1   
    19   19   20 1   
    20   19   28 1   
    21   20   21 1   
    22   20   23 1   
    23   20   29 1   
    24   21   22 2   
    25   21   41 1   
    26   23   24 1   
    27   23   30 1   
    28   23   31 1   
    29   24   25 1   
    30   24   32 1   
    31   24   33 1   
    32   25   26 1   
    33   25   34 1   
    34   25   35 1   
    35   26   27 1   
    36   26   36 1   
    37   26   37 1   
    38   27   38 1   
    39   27   39 1   
    40   27   40 1   
    41   41   42 1   
    42   41   49 1   
    43   42   43 1   
    44   42   45 1   
    45   42   50 1   
    46   43   44 2   
    47   43   53 1   
    48   45   46 1   
    49   45   51 1   
    50   45   52 1   
    51   46   47 1   
    52   46   48 1   
    53   53   54 1   
    54   53   57 1   
    55   54   55 1   
    56   54   58 1   
    57   54   59 1   
    58   55   56 2   
    59   55   60 1   
    60   60   61 1   
    61   60   68 1   
    62   61   62 1   
    63   61   64 1   
    64   61   69 1   
    65   62   63 2   
    66   62   74 1   
    67   64   65 1   
    68   64   70 1   
    69   64   71 1   
    70   65   66 1   
    71   65   67 2   
    72   66   72 1   
    73   66   73 1   
    74   74   75 1   
    75   74   78 1   
    76   75   76 1   
    77   75   79 1   
    78   75   80 1   
    79   76   77 2   
    80   76   81 1   
    81   81   82 1   
    82   81   93 1   
    83   82   83 1   
    84   82   85 1   
    85   82   94 1   
    86   83   84 2   
    87   83  102 1   
    88   85   86 1   
    89   85   95 1   
    90   85   96 1   
    91   86   87 ar  
    92   86   88 ar  
    93   87   89 ar  
    94   87   97 1   
    95   88   90 ar  
    96   88   98 1   
    97   89   91 ar  
    98   89   99 1   
    99   90   91 ar  
   100   90  100 1   
   101   91   92 1   
   102   92  101 1   
   103  102  103 1   
   104  102  110 1   
   105  103  104 1   
   106  103  106 1   
   107  103  111 1   
   108  104  105 2   
   109  104  121 1   
   110  106  107 1   
   111  106  108 1   
   112  106  112 1   
   113  107  109 1   
   114  107  113 1   
   115  107  114 1   
   116  108  115 1   
   117  108  116 1   
   118  108  117 1   
   119  109  118 1   
   120  109  119 1   
   121  109  120 1   
   122  121  122 1   
   123  121  127 1   
   124  122  123 1   
   125  122  125 1   
   126  122  128 1   
   127  123  124 2   
   128  123  132 1   
   129  125  126 1   
   130  125  129 1   
   131  125  130 1   
   132  126  131 1   
   133  132  133 1   
   134  132  137 1   
   135  133  134 1   
   136  133  136 1   
   137  133  138 1   
   138  134  135 2   
   139  134  142 1   
   140  136  139 1   
   141  136  140 1   
   142  136  141 1   
   143  142  143 1   
   144  142  147 1   
   145  143  144 1   
   146  143  146 1   
   147  143  148 1   
   148  144  145 2   
   149  144  152 1   
   150  146  149 1   
   151  146  150 1   
   152  146  151 1   
   153  152  153 1   
   154  152  161 1   
   155  153  154 1   
   156  153  156 1   
   157  153  162 1   
   158  154  155 2   
   159  154  167 1   
   160  156  157 1   
   161  156  163 1   
   162  156  164 1   
   163  157  158 1   
   164  157  165 1   
   165  157  166 1   
   166  158  159 1   
   167  158  160 1   
   168  167  168 1   
   169  167  172 1   
   170  168  169 1   
   171  168  170 1   
   172  168  171 1   
   173  174  175 1   
   174  174  176 1   
   175  177  178 1   
   176  177  179 1   
   177  180  181 1   
   178  180  182 1   
   179  183  184 1   
   180  183  185 1   
   181  186  187 1   
   182  186  188 1   
   183  189  190 1   
   184  189  191 1   
@<TRIPOS>SUBSTRUCTURE
     1 MOL         1 TEMP              0 ****  ****    0 ROOT
