@<TRIPOS>MOLECULE
MOL
  184   179     1     0     0
SMALL
resp


@<TRIPOS>ATOM
      1 C1         -2.9450   -3.6440   -3.2790 c3        1 MOL     -0.427660
      2 C2         -4.3180   -2.9740   -3.2110 c         1 MOL      0.725991
      3 O1         -4.5110   -1.7710   -3.1370 o         1 MOL     -0.575601
      4 H1         -2.9090   -4.4700   -2.5690 hc        1 MOL      0.104615
      5 H2         -2.7750   -4.0250   -4.2870 hc        1 MOL      0.104615
      6 H3         -2.1730   -2.9170   -3.0300 hc        1 MOL      0.104615
      7 N1         -5.2960   -3.8640   -3.2610 n         1 MOL     -0.550850
      8 C3         -6.6770   -3.6530   -2.8990 c3        1 MOL      0.146375
      9 C4         -6.7950   -3.4690   -1.3850 c         1 MOL      0.590079
     10 O2         -6.2680   -4.3020   -0.5790 o         1 MOL     -0.595545
     11 C5         -7.3740   -4.8690   -3.3880 c3        1 MOL     -0.172950
     12 C6         -8.8960   -4.7640   -3.4370 c         1 MOL      0.675397
     13 O3         -9.5500   -5.8430   -3.5100 o         1 MOL     -0.723547
     14 O4         -9.4410   -3.5850   -3.5140 o         1 MOL     -0.723547
     15 H4         -4.9550   -4.7550   -3.5770 hn        1 MOL      0.268342
     16 H5         -7.0290   -2.7200   -3.3300 h1        1 MOL      0.030523
     17 H6         -7.1250   -5.6690   -2.6910 hc        1 MOL      0.031674
     18 H7         -6.9850   -5.1620   -4.3630 hc        1 MOL      0.031674
     19 N2         -7.4160   -2.3520   -0.9030 n         1 MOL     -0.601666
     20 C7         -7.3530   -2.0520    0.5930 c3        1 MOL      0.268153
     21 C8         -5.9680   -1.5740    1.0880 c         1 MOL      0.629538
     22 O5         -5.4310   -0.5560    0.6080 o         1 MOL     -0.562541
     23 C9         -8.3760   -0.9020    0.9740 c3        1 MOL     -0.330772
     24 H8         -7.9820   -1.8060   -1.5280 hn        1 MOL      0.331338
     25 H9         -7.6650   -2.9320    1.1600 h1        1 MOL      0.032397
     26 H10        -9.3450   -1.2150    0.5800 hc        1 MOL      0.085619
     27 H11        -8.4020   -0.8960    2.0660 hc        1 MOL      0.085619
     28 H12        -8.0200    0.0630    0.6030 hc        1 MOL      0.085619
     29 N3         -5.3680   -2.2300    2.0900 n         1 MOL     -0.501332
     30 C10        -4.1880   -1.8980    2.7830 c3        1 MOL      0.186789
     31 C11        -4.4790   -0.9200    3.9330 c         1 MOL      0.256836
     32 O6         -5.6140   -0.9000    4.4950 o         1 MOL     -0.505577
     33 C12        -3.6350   -3.1830    3.4190 c3        1 MOL     -0.070553
     34 C13        -2.2420   -3.0120    3.9270 c         1 MOL      0.657930
     35 O7         -2.0260   -2.4370    5.0120 o         1 MOL     -0.718745
     36 O8         -1.2650   -3.5430    3.3210 o         1 MOL     -0.718745
     37 H13        -5.8650   -3.0180    2.4850 hn        1 MOL      0.236558
     38 H14        -3.4050   -1.5050    2.1470 h1        1 MOL      0.015320
     39 H15        -3.6500   -3.9970    2.6850 hc        1 MOL      0.020850
     40 H16        -4.2480   -3.4840    4.2660 hc        1 MOL      0.020850
     41 N4         -3.4850   -0.0810    4.3890 n         1 MOL      0.084838
     42 C14        -3.6660    0.8340    5.4830 c3        1 MOL     -0.351394
     43 C15        -3.2400    2.3440    5.1520 c         1 MOL      0.568528
     44 O9         -3.2150    3.1670    6.0630 o         1 MOL     -0.564488
     45 H17        -2.5730   -0.1410    3.9680 hn        1 MOL      0.196302
     46 H18        -2.9610    0.4910    6.2430 h1        1 MOL      0.137760
     47 H19        -4.6880    1.0520    5.8050 h1        1 MOL      0.137760
     48 N5         -2.9860    2.6650    3.8860 n         1 MOL     -0.367353
     49 C16        -2.4600    3.9430    3.5060 c3        1 MOL      0.226134
     50 C17        -3.0700    4.5680    2.2210 c         1 MOL      0.422191
     51 O10        -3.2050    3.8760    1.1790 o         1 MOL     -0.445903
     52 C18        -0.9250    3.8950    3.3780 c3        1 MOL     -0.071326
     53 C19        -0.2830    5.2560    3.2740 c         1 MOL      0.577231
     54 N6          0.8520    5.4700    2.6870 n         1 MOL     -0.773797
     55 O11        -0.8660    6.2710    3.6720 o         1 MOL     -0.574294
     56 H20        -3.1480    1.9390    3.2060 hn        1 MOL      0.155105
     57 H21        -2.6460    4.6290    4.3330 h1        1 MOL     -0.011855
     58 H22        -0.6120    3.1210    2.6830 hc        1 MOL      0.038371
     59 H23        -0.5170    3.5270    4.3130 hc        1 MOL      0.038371
     60 H24         1.3580    4.6720    2.3280 hn        1 MOL      0.369246
     61 H25         1.2500    6.3880    2.8110 hn        1 MOL      0.369246
     62 N7         -3.4080    5.8800    2.2900 n         1 MOL     -0.483703
     63 C20        -3.7210    6.5500    1.0940 c3        1 MOL      0.127419
     64 C21        -2.5880    6.6960    0.0700 c         1 MOL      0.417229
     65 O12        -1.4640    6.7970    0.5460 o         1 MOL     -0.419897
     66 H26        -3.3570    6.3630    3.1770 hn        1 MOL      0.339209
     67 H27        -4.2580    7.4710    1.2860 h1        1 MOL      0.017045
     68 H28        -4.5110    6.0750    0.4970 h1        1 MOL      0.017045
     69 N8         -2.8820    6.6180   -1.2090 n         1 MOL     -0.360595
     70 C22        -1.9990    7.1740   -2.3060 c3        1 MOL     -0.450692
     71 C23        -0.8630    6.2960   -2.6840 c         1 MOL      0.549043
     72 O13         0.0550    6.7370   -3.3300 o         1 MOL     -0.556560
     73 C24        -2.7870    7.7210   -3.5350 c3        1 MOL      0.485315
     74 C25        -3.5610    6.6260   -4.2500 c3        1 MOL     -0.388048
     75 O14        -3.6480    8.7040   -3.1340 oh        1 MOL     -0.603568
     76 H29        -3.8140    6.3310   -1.4650 hn        1 MOL      0.283980
     77 H30        -1.4890    8.0460   -1.8990 h1        1 MOL      0.218887
     78 H31        -2.0620    8.2190   -4.1780 h1        1 MOL      0.053185
     79 H32        -4.3070    8.2470   -2.5980 ho        1 MOL      0.368239
     80 H33        -4.1530    6.0380   -3.5450 hc        1 MOL      0.096115
     81 H34        -4.2370    6.9560   -5.0430 hc        1 MOL      0.096115
     82 H35        -2.8670    5.9280   -4.7350 hc        1 MOL      0.096115
     83 N9         -0.8390    4.9890   -2.3380 n         1 MOL     -0.283753
     84 C26         0.2360    3.9530   -2.5850 c3        1 MOL     -0.012893
     85 C27         0.2420    3.0070   -1.4340 c         1 MOL      0.462184
     86 O15        -0.6970    3.0720   -0.6270 o         1 MOL     -0.426070
     87 C28         0.0010    3.2280   -3.9300 c3        1 MOL      0.222611
     88 C29        -1.4350    2.5720   -3.8230 c3        1 MOL     -0.017910
     89 C30         0.1400    4.0430   -5.1800 c3        1 MOL     -0.538862
     90 C31        -1.5660    1.1390   -4.2740 c3        1 MOL     -0.067756
     91 H36        -1.5380    4.7690   -1.6460 hn        1 MOL      0.220789
     92 H37         1.1800    4.4850   -2.7410 h1        1 MOL      0.064715
     93 H38         0.7890    2.4890   -4.0430 hc        1 MOL     -0.001553
     94 H39        -2.1000    3.1660   -4.4420 hc        1 MOL      0.037285
     95 H40        -1.8770    2.7720   -2.8390 hc        1 MOL      0.037285
     96 H41         1.1600    4.4170   -5.0900 hc        1 MOL      0.131094
     97 H42        -0.0480    3.2960   -5.9490 hc        1 MOL      0.131094
     98 H43        -0.5760    4.8580   -5.2640 hc        1 MOL      0.131094
     99 H44        -2.6170    0.8600   -4.3590 hc        1 MOL      0.013418
    100 H45        -1.1740    0.9410   -5.2700 hc        1 MOL      0.013418
    101 H46        -0.9990    0.4860   -3.6060 hc        1 MOL      0.013418
    102 N10         1.2420    2.1210   -1.3720 n         1 MOL     -0.598976
    103 C32         1.3210    1.1190   -0.3620 c3        1 MOL      0.112939
    104 C33         2.6950    0.9280    0.2570 c         1 MOL      0.562011
    105 O16         2.7140    0.7050    1.4780 o         1 MOL     -0.567001
    106 C34         0.8120   -0.1910   -1.0500 c3        1 MOL     -0.313145
    107 C35         0.7930   -1.3660   -0.0990 c         1 MOL      0.711990
    108 O17         1.7000   -2.1790   -0.1520 o         1 MOL     -0.711545
    109 O18        -0.1560   -1.5290    0.7150 o         1 MOL     -0.711545
    110 H47         1.9170    2.2250   -2.1180 hn        1 MOL      0.288466
    111 H48         0.6760    1.2250    0.5130 h1        1 MOL      0.123418
    112 H49         1.3600   -0.4490   -1.9610 hc        1 MOL      0.100571
    113 H50        -0.2020    0.0010   -1.3930 hc        1 MOL      0.100571
    114 N11         3.8310    1.2300   -0.4560 n         1 MOL     -0.480300
    115 C36         5.0940    1.1840    0.1910 c3        1 MOL      0.337216
    116 C37         6.0910    0.1990   -0.4770 c         1 MOL      0.108195
    117 O19         6.1890    0.2590   -1.7150 o         1 MOL     -0.422055
    118 C38         5.7450    2.6480    0.1090 c3        1 MOL     -0.402122
    119 C39         7.1590    2.7490    0.6520 ca        1 MOL      0.249271
    120 C40         7.2760    2.8400    2.0260 ca        1 MOL     -0.202116
    121 C41         8.3050    2.8230   -0.2050 ca        1 MOL     -0.202116
    122 C42         8.5450    2.8440    2.6200 ca        1 MOL     -0.118336
    123 C43         9.6000    2.8700    0.3810 ca        1 MOL     -0.118336
    124 C44         9.7010    2.8360    1.7800 ca        1 MOL     -0.127313
    125 H51         3.7610    1.5100   -1.4250 hn        1 MOL      0.319506
    126 H52         4.9860    1.0090    1.2570 h1        1 MOL      0.051822
    127 H53         5.1290    3.2630    0.7590 hc        1 MOL      0.113616
    128 H54         5.8010    3.0010   -0.9120 hc        1 MOL      0.113616
    129 H55         6.3700    2.8340    2.6090 ha        1 MOL      0.150119
    130 H56         8.2230    2.6710   -1.2690 ha        1 MOL      0.150119
    131 H57         8.5990    2.8640    3.6990 ha        1 MOL      0.118533
    132 H58        10.4810    2.6890   -0.2130 ha        1 MOL      0.118533
    133 H59        10.6440    2.6520    2.2690 ha        1 MOL      0.103307
    134 N12         6.9430   -0.5430    0.2890 n         1 MOL     -0.080001
    135 C45         8.0240   -1.2680   -0.3290 c3        1 MOL      0.059413
    136 C46         7.5300   -2.3300   -1.3700 c         1 MOL      0.206615
    137 O20         8.1640   -2.5200   -2.4230 o         1 MOL     -0.474891
    138 C47         8.8500   -1.8790    0.7570 c3        1 MOL     -0.001893
    139 C48         8.4940   -0.9420    1.8920 c3        1 MOL     -0.080951
    140 C49         7.0430   -0.5500    1.7190 c3        1 MOL     -0.002824
    141 H60         8.6410   -0.4660   -0.7530 h1        1 MOL      0.089503
    142 H61         8.5760   -2.9180    0.9160 hc        1 MOL      0.025243
    143 H62         9.8650   -1.7680    0.3620 hc        1 MOL      0.025243
    144 H63         8.6660   -1.4210    2.8650 hc        1 MOL      0.039549
    145 H64         9.1580   -0.0800    1.8140 hc        1 MOL      0.039549
    146 H65         6.3920   -1.3080    2.1560 h1        1 MOL      0.031370
    147 H66         6.7040    0.3870    2.1630 h1        1 MOL      0.031370
    148 N13         6.3340   -2.9260   -1.2210 n         1 MOL      0.132686
    149 C50         5.7940   -3.9420   -2.1090 c3        1 MOL     -0.544970
    150 C51         5.4240   -3.3630   -3.4290 c         1 MOL      0.608630
    151 O21         5.5700   -3.9490   -4.5550 o         1 MOL     -0.564165
    152 C52         4.4670   -4.5150   -1.4530 c3        1 MOL      0.311365
    153 C53         4.8990   -5.2490   -0.1670 c3        1 MOL     -0.200686
    154 C54         3.7050   -5.6930    0.6920 c         1 MOL      0.874986
    155 O22         3.5820   -6.8880    0.9960 o         1 MOL     -0.801228
    156 O23         2.9130   -4.8980    1.1540 o         1 MOL     -0.801228
    157 H67         5.8440   -2.7460   -0.3550 hn        1 MOL      0.190824
    158 H68         6.4840   -4.7770   -2.2340 h1        1 MOL      0.200948
    159 H69         3.9110   -5.1310   -2.1610 hc        1 MOL     -0.051123
    160 H70         3.8050   -3.6820   -1.2480 hc        1 MOL     -0.051123
    161 H71         5.4680   -4.5380    0.4260 hc        1 MOL      0.004034
    162 H72         5.5250   -6.1010   -0.4050 hc        1 MOL      0.004034
    163 N14         4.9780   -2.0800   -3.4270 n         1 MOL     -0.188935
    164 C55         4.5670   -1.3390   -4.5930 c3        1 MOL     -0.387434
    165 H73         3.9540   -0.4920   -4.2870 h1        1 MOL      0.136234
    166 H74         5.4480   -0.9770   -5.1230 h1        1 MOL      0.136234
    167 H75         3.9880   -1.9870   -5.2510 h1        1 MOL      0.136234
    168 H76         5.0460   -1.5530   -2.5750 hn        1 MOL      0.182967
    169 Ca1         0.4200   -4.0800    1.4390 Ca        1 MOL      1.836520
    170 O24        -0.9210   -6.4920    1.7430 oh        1 MOL     -0.887178
    171 H77        -1.4820   -6.6730    2.4910 ho        1 MOL      0.426503
    172 H78        -0.7680   -7.3380    1.3300 ho        1 MOL      0.426503
    173 O25         1.5610   -6.2830    3.0680 oh        1 MOL     -0.887178
    174 H79         1.7330   -6.9770    3.7050 ho        1 MOL      0.426503
    175 H80         2.2030   -6.4110    2.3740 ho        1 MOL      0.426503
    176 O26         1.8040   -2.3100    2.9330 oh        1 MOL     -0.887178
    177 H81         1.4960   -1.4100    2.9520 ho        1 MOL      0.426503
    178 H82         2.7650   -2.2380    2.9330 ho        1 MOL      0.426503
    179 O27         0.3150   -5.6210   -0.8810 oh        1 MOL     -0.887178
    180 H83        -0.2290   -6.3520   -1.1670 ho        1 MOL      0.426503
    181 H84         1.0530   -5.6110   -1.4940 ho        1 MOL      0.426503
    182 O28        -2.0000   -3.7070    0.1870 oh        1 MOL     -0.887178
    183 H85        -2.4380   -2.8810   -0.0420 ho        1 MOL      0.426503
    184 H86        -2.6850   -4.3690    0.0890 ho        1 MOL      0.426503
@<TRIPOS>BOND
     1    1    2 1   
     2    1    4 1   
     3    1    5 1   
     4    1    6 1   
     5    2    3 2   
     6    2    7 1   
     7    7    8 1   
     8    7   15 1   
     9    8    9 1   
    10    8   11 1   
    11    8   16 1   
    12    9   10 2   
    13    9   19 1   
    14   11   12 1   
    15   11   17 1   
    16   11   18 1   
    17   12   13 1   
    18   12   14 1   
    19   19   20 1   
    20   19   24 1   
    21   20   21 1   
    22   20   23 1   
    23   20   25 1   
    24   21   22 2   
    25   21   29 1   
    26   23   26 1   
    27   23   27 1   
    28   23   28 1   
    29   29   30 1   
    30   29   37 1   
    31   30   31 1   
    32   30   33 1   
    33   30   38 1   
    34   31   32 2   
    35   31   41 1   
    36   33   34 1   
    37   33   39 1   
    38   33   40 1   
    39   34   35 1   
    40   34   36 1   
    41   41   42 1   
    42   41   45 1   
    43   42   43 1   
    44   42   46 1   
    45   42   47 1   
    46   43   44 2   
    47   43   48 1   
    48   48   49 1   
    49   48   56 1   
    50   49   50 1   
    51   49   52 1   
    52   49   57 1   
    53   50   51 2   
    54   50   62 1   
    55   52   53 1   
    56   52   58 1   
    57   52   59 1   
    58   53   54 1   
    59   53   55 2   
    60   54   60 1   
    61   54   61 1   
    62   62   63 1   
    63   62   66 1   
    64   63   64 1   
    65   63   67 1   
    66   63   68 1   
    67   64   65 2   
    68   64   69 1   
    69   69   70 1   
    70   69   76 1   
    71   70   71 1   
    72   70   73 1   
    73   70   77 1   
    74   71   72 2   
    75   71   83 1   
    76   73   74 1   
    77   73   75 1   
    78   73   78 1   
    79   74   80 1   
    80   74   81 1   
    81   74   82 1   
    82   75   79 1   
    83   83   84 1   
    84   83   91 1   
    85   84   85 1   
    86   84   87 1   
    87   84   92 1   
    88   85   86 2   
    89   85  102 1   
    90   87   88 1   
    91   87   89 1   
    92   87   93 1   
    93   88   90 1   
    94   88   94 1   
    95   88   95 1   
    96   89   96 1   
    97   89   97 1   
    98   89   98 1   
    99   90   99 1   
   100   90  100 1   
   101   90  101 1   
   102  102  103 1   
   103  102  110 1   
   104  103  104 1   
   105  103  106 1   
   106  103  111 1   
   107  104  105 2   
   108  104  114 1   
   109  106  107 1   
   110  106  112 1   
   111  106  113 1   
   112  107  108 1   
   113  107  109 1   
   114  114  115 1   
   115  114  125 1   
   116  115  116 1   
   117  115  118 1   
   118  115  126 1   
   119  116  117 2   
   120  116  134 1   
   121  118  119 1   
   122  118  127 1   
   123  118  128 1   
   124  119  120 ar  
   125  119  121 ar  
   126  120  122 ar  
   127  120  129 1   
   128  121  123 ar  
   129  121  130 1   
   130  122  124 ar  
   131  122  131 1   
   132  123  124 ar  
   133  123  132 1   
   134  124  133 1   
   135  134  135 1   
   136  134  140 1   
   137  135  136 1   
   138  135  138 1   
   139  135  141 1   
   140  136  137 2   
   141  136  148 1   
   142  138  139 1   
   143  138  142 1   
   144  138  143 1   
   145  139  140 1   
   146  139  144 1   
   147  139  145 1   
   148  140  146 1   
   149  140  147 1   
   150  148  149 1   
   151  148  157 1   
   152  149  150 1   
   153  149  152 1   
   154  149  158 1   
   155  150  151 2   
   156  150  163 1   
   157  152  153 1   
   158  152  159 1   
   159  152  160 1   
   160  153  154 1   
   161  153  161 1   
   162  153  162 1   
   163  154  155 1   
   164  154  156 1   
   165  163  164 1   
   166  163  168 1   
   167  164  165 1   
   168  164  166 1   
   169  164  167 1   
   170  170  171 1   
   171  170  172 1   
   172  173  174 1   
   173  173  175 1   
   174  176  177 1   
   175  176  178 1   
   176  179  180 1   
   177  179  181 1   
   178  182  183 1   
   179  182  184 1   
@<TRIPOS>SUBSTRUCTURE
     1 MOL         1 TEMP              0 ****  ****    0 ROOT
