@<TRIPOS>MOLECULE
MOL
  192   187     1     0     0
SMALL
resp


@<TRIPOS>ATOM
      1 C1         -7.1820   -3.9500    3.5670 c3        1 MOL     -0.178191
      2 C2         -6.3860   -3.1150    2.5700 c         1 MOL      0.705525
      3 O1         -5.9620   -3.6190    1.5540 o         1 MOL     -0.574667
      4 H1         -6.6440   -4.8750    3.7760 hc        1 MOL      0.035474
      5 H2         -7.3090   -3.3890    4.4920 hc        1 MOL      0.035474
      6 H3         -8.1590   -4.1860    3.1460 hc        1 MOL      0.035474
      7 N1         -6.1940   -1.8480    2.9330 n         1 MOL     -0.406874
      8 C3         -5.5450   -0.7400    2.1810 c3        1 MOL     -0.038295
      9 C4         -4.0420   -0.9120    1.9360 c         1 MOL      0.077650
     10 O2         -3.4910   -0.2300    1.0090 o         1 MOL     -0.026600
     11 C5         -5.6180    0.6400    2.8690 c3        1 MOL     -0.107956
     12 C6         -7.0280    1.2030    3.1940 c         1 MOL      0.688096
     13 O3         -7.4930    2.2880    2.6610 o         1 MOL     -0.693196
     14 O4         -7.6500    0.7390    4.1400 o         1 MOL     -0.693196
     15 H4         -6.5980   -1.5020    3.7960 hn        1 MOL      0.247142
     16 H5         -6.0390   -0.6280    1.2210 h1        1 MOL      0.131020
     17 H6         -5.0670    1.3620    2.2670 hc        1 MOL      0.006886
     18 H7         -5.1330    0.5240    3.8330 hc        1 MOL      0.006886
     19 N2         -3.3770   -1.8510    2.6040 n         1 MOL     -0.064134
     20 C7         -1.9130   -1.9980    2.5820 c3        1 MOL     -0.053751
     21 C8         -1.5010   -3.1080    1.5700 c         1 MOL      0.402865
     22 O5         -2.0700   -4.2150    1.5900 o         1 MOL     -0.491242
     23 C9         -1.3510   -2.2640    3.9130 c3        1 MOL     -0.106432
     24 C10        -1.6860   -1.1660    4.9030 c3        1 MOL      0.080754
     25 C11        -0.5730   -0.8740    5.8690 c3        1 MOL     -0.338917
     26 C12        -0.2100   -2.1040    6.7920 c3        1 MOL      0.099740
     27 N3          0.9100   -1.8090    7.6470 n4        1 MOL     -0.294533
     28 H8         -3.9190   -2.4330    3.2280 hn        1 MOL      0.194762
     29 H9         -1.5120   -1.0640    2.1860 h1        1 MOL      0.062196
     30 H10        -0.2670   -2.3070    3.7980 hc        1 MOL      0.040365
     31 H11        -1.7370   -3.2030    4.3140 hc        1 MOL      0.040365
     32 H12        -2.6490   -1.3530    5.3820 hc        1 MOL      0.030483
     33 H13        -1.8830   -0.3300    4.2350 hc        1 MOL      0.030483
     34 H14        -0.8060   -0.0590    6.5590 hc        1 MOL      0.121721
     35 H15         0.2720   -0.4550    5.3200 hc        1 MOL      0.121721
     36 H16         0.1280   -2.9670    6.2130 hx        1 MOL      0.079416
     37 H17        -1.0760   -2.5380    7.3080 hx        1 MOL      0.079416
     38 H18         1.7240   -1.6780    7.0720 hn        1 MOL      0.313000
     39 H19         0.7680   -0.9640    8.1750 hn        1 MOL      0.313000
     40 H20         1.1710   -2.4840    8.3440 hn        1 MOL      0.313000
     41 N4         -0.4080   -2.9150    0.7850 n         1 MOL     -0.206317
     42 C13         0.4190   -1.7830    0.6310 c3        1 MOL     -0.233611
     43 C14         1.0260   -1.1440    1.8940 c         1 MOL      0.721213
     44 O6          0.5960   -0.1150    2.2970 o         1 MOL     -0.552023
     45 C15        -0.2270   -0.7710   -0.3440 c3        1 MOL     -0.223068
     46 C16        -0.2520   -1.0940   -1.8200 c         1 MOL      0.666996
     47 O7          0.1700   -2.1810   -2.2160 o         1 MOL     -0.710432
     48 O8         -0.6030   -0.1340   -2.5810 o         1 MOL     -0.710432
     49 H21        -0.1740   -3.6960    0.1810 hn        1 MOL      0.175641
     50 H22         1.3220   -2.0290    0.0810 h1        1 MOL      0.062650
     51 H23         0.2620    0.1840   -0.1360 hc        1 MOL      0.148472
     52 H24        -1.2000   -0.5140    0.0610 hc        1 MOL      0.148472
     53 N5          2.0710   -1.6800    2.5310 n         1 MOL     -0.469975
     54 C17         3.0600   -2.6640    1.9510 c3        1 MOL      0.076371
     55 C18         4.3260   -2.7230    2.7170 c         1 MOL      0.588728
     56 O9          4.3620   -2.1790    3.7740 o         1 MOL     -0.575906
     57 H25         2.3890   -1.1980    3.3490 hn        1 MOL      0.269359
     58 H26         3.2900   -2.4010    0.9110 h1        1 MOL      0.039467
     59 H27         2.5770   -3.6340    2.0030 h1        1 MOL      0.039467
     60 N6          5.4440   -3.2200    2.2520 n         1 MOL     -0.439200
     61 C19         5.5540   -3.9650    0.9910 c3        1 MOL     -0.060843
     62 C20         6.3880   -3.1620    0.0240 c         1 MOL      0.580157
     63 O10         7.3240   -2.5470    0.4600 o         1 MOL     -0.418662
     64 C21         6.1100   -5.3800    1.2090 c3        1 MOL     -0.043454
     65 C22         7.4700   -5.4210    1.8360 c         1 MOL      0.628388
     66 O11         8.4230   -5.9290    1.2030 o         1 MOL     -0.629676
     67 O12         7.6720   -4.8800    2.9960 o         1 MOL     -0.629676
     68 H28         6.2370   -3.2900    2.8740 hn        1 MOL      0.296925
     69 H29         4.5760   -4.0430    0.5000 h1        1 MOL     -0.006700
     70 H30         6.0530   -5.9560    0.2830 hc        1 MOL     -0.004117
     71 H31         5.4210   -5.9620    1.8190 hc        1 MOL     -0.004117
     72 N7          6.0600   -3.2250   -1.2270 n         1 MOL     -0.352264
     73 C23         6.8340   -2.4780   -2.2750 c3        1 MOL     -0.212183
     74 C24         6.6210   -0.9480   -2.2760 c         1 MOL      0.503740
     75 O13         7.5760   -0.1600   -2.1840 o         1 MOL     -0.504541
     76 H32         5.3770   -3.9120   -1.5070 hn        1 MOL      0.241804
     77 H33         6.4800   -2.8050   -3.2610 h1        1 MOL      0.117162
     78 H34         7.9100   -2.6330   -2.1740 h1        1 MOL      0.117162
     79 N8          5.3650   -0.4850   -2.1750 n         1 MOL     -0.362816
     80 C25         4.9720    0.9330   -2.1570 c3        1 MOL     -0.238769
     81 C26         5.3280    1.6230   -0.8540 c         1 MOL      0.548057
     82 O14         5.2340    1.0310    0.2310 o         1 MOL     -0.519572
     83 C27         3.4540    1.0150   -2.5230 c3        1 MOL      0.617596
     84 C28         3.0100    0.6170   -3.9560 c3        1 MOL     -0.212885
     85 O15         3.0230    2.3370   -2.3420 oh        1 MOL     -0.637254
     86 H35         4.5890   -1.1320   -2.1550 hn        1 MOL      0.219579
     87 H36         5.5460    1.4560   -2.9220 h1        1 MOL      0.115542
     88 H37         2.8690    0.4200   -1.8250 h1        1 MOL     -0.028004
     89 H38         2.4010    2.2410   -1.6230 ho        1 MOL      0.373377
     90 H39         3.4800   -0.3490   -4.1070 hc        1 MOL      0.030039
     91 H40         1.9190    0.6430   -4.0010 hc        1 MOL      0.030039
     92 H41         3.4160    1.3600   -4.6500 hc        1 MOL      0.030039
     93 N9          5.7320    2.8860   -0.9100 n         1 MOL     -0.140815
     94 C29         6.0370    3.6810    0.2470 c3        1 MOL     -0.173193
     95 C30         4.7400    4.2510    0.9050 c         1 MOL      0.392059
     96 O16         4.8060    4.8790    1.9760 o         1 MOL     -0.521708
     97 C31         7.1350    4.7320   -0.0090 c3        1 MOL      0.096233
     98 C32         6.7340    5.8670   -0.9760 c3        1 MOL      0.090652
     99 C33         8.4190    3.9340   -0.3880 c3        1 MOL      0.025648
    100 C34         6.1320    7.1440   -0.3820 c3        1 MOL     -0.176719
    101 H42         6.0700    3.1340   -1.8310 hn        1 MOL      0.187399
    102 H43         6.3950    2.9520    0.9810 h1        1 MOL      0.134741
    103 H44         7.4740    5.1770    0.9230 hc        1 MOL      0.026624
    104 H45         5.9680    5.5280   -1.6860 hc        1 MOL     -0.034430
    105 H46         7.5890    5.9690   -1.6430 hc        1 MOL     -0.034430
    106 H47         8.2510    3.3570   -1.2980 hc        1 MOL     -0.006408
    107 H48         9.2920    4.5700   -0.5680 hc        1 MOL     -0.006408
    108 H49         8.7020    3.2560    0.4090 hc        1 MOL     -0.006408
    109 H50         5.5110    6.8420    0.4570 hc        1 MOL      0.046860
    110 H51         6.9740    7.7590   -0.0790 hc        1 MOL      0.046860
    111 H52         5.6240    7.6230   -1.2130 hc        1 MOL      0.046860
    112 N10         3.6010    4.0250    0.2300 n         1 MOL     -0.049466
    113 C35         2.3250    4.6140    0.6920 c3        1 MOL     -0.049811
    114 C36         1.2580    3.6210    0.4190 c         1 MOL      0.519273
    115 O17         1.3660    2.6250   -0.3260 o         1 MOL     -0.487610
    116 C37         1.9510    5.7860   -0.2340 c3        1 MOL      0.426511
    117 C38         2.1500    5.6900   -1.7310 c3        1 MOL     -0.252923
    118 O18         2.6100    7.0360    0.0270 oh        1 MOL     -0.680414
    119 H53         3.6160    3.4560   -0.6080 hn        1 MOL     -0.073127
    120 H54         2.3430    4.7070    1.7800 h1        1 MOL      0.112245
    121 H55         0.8940    5.9970   -0.0850 h1        1 MOL     -0.033124
    122 H56         2.2760    7.6670   -0.6150 ho        1 MOL      0.393678
    123 H57         1.7650    4.7340   -2.0710 hc        1 MOL      0.073562
    124 H58         1.5190    6.3740   -2.3020 hc        1 MOL      0.073562
    125 H59         3.1800    5.8220   -2.0610 hc        1 MOL      0.073562
    126 N11         0.1310    3.8260    1.1650 n         1 MOL     -0.423559
    127 C39        -1.0020    2.9060    1.1780 c3        1 MOL     -0.011140
    128 C40        -2.0090    3.2190    0.1560 c         1 MOL      0.595290
    129 O19        -2.0070    4.3450   -0.3190 o         1 MOL     -0.568715
    130 C41        -1.5510    2.7170    2.6230 c3        1 MOL      0.311693
    131 C42        -1.8860    4.0000    3.3960 c3        1 MOL     -0.408378
    132 O20        -0.5940    2.0780    3.4110 oh        1 MOL     -0.541752
    133 H60         0.0480    4.6080    1.7910 hn        1 MOL      0.265567
    134 H61        -0.6800    1.9260    0.8410 h1        1 MOL      0.121318
    135 H62        -2.3830    2.0180    2.6250 h1        1 MOL      0.079492
    136 H63        -0.4120    1.3760    2.7930 ho        1 MOL      0.286856
    137 H64        -2.4420    4.6770    2.7490 hc        1 MOL      0.113555
    138 H65        -2.6670    3.8530    4.1320 hc        1 MOL      0.113555
    139 H66        -0.9660    4.4170    3.8170 hc        1 MOL      0.113555
    140 N12        -2.9170    2.2080   -0.1960 n         1 MOL     -0.275465
    141 C43        -3.9460    2.3640   -1.2330 c3        1 MOL      0.074357
    142 C44        -4.0600    1.1980   -2.2660 c         1 MOL      0.588295
    143 O21        -4.4210    1.3480   -3.4160 o         1 MOL     -0.640994
    144 C45        -5.2600    2.5670   -0.5150 c3        1 MOL     -0.172292
    145 C46        -6.4230    3.2640   -1.2620 c3        1 MOL      0.275965
    146 C47        -6.2270    4.7460   -1.3920 c3        1 MOL     -0.130232
    147 C48        -7.4030    5.5600   -1.8780 c3        1 MOL      0.010824
    148 N13        -8.5150    5.7010   -0.8740 n4        1 MOL     -0.469492
    149 H67        -2.8420    1.2990    0.2350 hn        1 MOL     -0.157398
    150 H68        -3.7560    3.2510   -1.8300 h1        1 MOL      0.042088
    151 H69        -5.1200    3.1540    0.3960 hc        1 MOL      0.021090
    152 H70        -5.5100    1.5410   -0.2340 hc        1 MOL      0.021090
    153 H71        -7.3590    3.0600   -0.7400 hc        1 MOL     -0.047111
    154 H72        -6.5440    2.7520   -2.2180 hc        1 MOL     -0.047111
    155 H73        -5.4790    4.9380   -2.1600 hc        1 MOL      0.065317
    156 H74        -5.7870    5.0560   -0.4430 hc        1 MOL      0.065317
    157 H75        -7.7270    5.2000   -2.8530 hx        1 MOL      0.085567
    158 H76        -6.9660    6.5400   -2.0740 hx        1 MOL      0.085567
    159 H77        -8.1150    6.2650   -0.1380 hn        1 MOL      0.363910
    160 H78        -9.2270    6.2270   -1.3580 hn        1 MOL      0.363910
    161 H79        -8.8150    4.7830   -0.5760 hn        1 MOL      0.363910
    162 N14        -3.7240   -0.0190   -1.8560 n         1 MOL     -0.034527
    163 C49        -4.1650   -1.2960   -2.4920 c3        1 MOL      0.048833
    164 C50        -5.6970   -1.3760   -2.4940 c         1 MOL      0.298417
    165 O22        -6.3790   -1.0660   -1.4760 o         1 MOL     -0.480236
    166 C51        -3.5880   -2.4210   -1.6990 c3        1 MOL      0.587555
    167 C52        -4.0120   -3.8270   -2.1830 c3        1 MOL     -0.315479
    168 C53        -3.6830   -3.8910   -3.7270 c         1 MOL      0.566201
    169 O23        -4.5650   -3.9880   -4.5960 o         1 MOL     -0.696465
    170 O24        -2.5180   -3.9540   -4.0720 o         1 MOL     -0.696465
    171 H80        -3.5320   -0.0440   -0.8580 hn        1 MOL     -0.088306
    172 H81        -3.8480   -1.2150   -3.5370 h1        1 MOL      0.037343
    173 H82        -3.9710   -2.2760   -0.6920 hc        1 MOL     -0.196579
    174 H83        -2.5070   -2.3620   -1.7750 hc        1 MOL     -0.196579
    175 H84        -5.0410   -4.0800   -1.9130 hc        1 MOL      0.085980
    176 H85        -3.3980   -4.6100   -1.7410 hc        1 MOL      0.085980
    177 N15        -6.2930   -1.6470   -3.6500 n         1 MOL     -0.174438
    178 C54        -7.6900   -1.7100   -3.8310 c3        1 MOL     -0.087528
    179 H86        -8.0220   -0.8380   -4.3950 h1        1 MOL      0.056358
    180 H87        -7.9450   -2.6170   -4.3810 h1        1 MOL      0.056358
    181 H88        -8.1820   -1.7230   -2.8590 h1        1 MOL      0.056358
    182 H89        -5.6980   -1.7320   -4.4690 hn        1 MOL      0.291246
    183 Ca1        -0.0580   -3.9260   -4.0420 Ca        1 MOL      1.609768
    184 O25         2.0600   -2.5940   -4.8480 oh        1 MOL     -0.848035
    185 H90         2.9990   -2.5890   -4.7180 ho        1 MOL      0.421942
    186 H91         1.9070   -1.9630   -5.5570 ho        1 MOL      0.421942
    187 O26        -0.7430   -1.5270   -4.9750 oh        1 MOL     -0.848035
    188 H92        -0.9910   -1.1330   -5.8050 ho        1 MOL      0.421942
    189 H93        -0.6850   -0.7880   -4.3630 ho        1 MOL      0.421942
    190 O27        -0.4760   -3.7500   -6.7260 oh        1 MOL     -0.848035
    191 H94        -0.5130   -4.6090   -7.1440 ho        1 MOL      0.421942
    192 H95        -1.3310   -3.3640   -6.9020 ho        1 MOL      0.421942
@<TRIPOS>BOND
     1    1    2 1   
     2    1    4 1   
     3    1    5 1   
     4    1    6 1   
     5    2    3 2   
     6    2    7 1   
     7    7    8 1   
     8    7   15 1   
     9    8    9 1   
    10    8   11 1   
    11    8   16 1   
    12    9   10 2   
    13    9   19 1   
    14   11   12 1   
    15   11   17 1   
    16   11   18 1   
    17   12   13 1   
    18   12   14 1   
    19   19   20 1   
    20   19   28 1   
    21   20   21 1   
    22   20   23 1   
    23   20   29 1   
    24   21   22 2   
    25   21   41 1   
    26   23   24 1   
    27   23   30 1   
    28   23   31 1   
    29   24   25 1   
    30   24   32 1   
    31   24   33 1   
    32   25   26 1   
    33   25   34 1   
    34   25   35 1   
    35   26   27 1   
    36   26   36 1   
    37   26   37 1   
    38   27   38 1   
    39   27   39 1   
    40   27   40 1   
    41   41   42 1   
    42   41   49 1   
    43   42   43 1   
    44   42   45 1   
    45   42   50 1   
    46   43   44 2   
    47   43   53 1   
    48   45   46 1   
    49   45   51 1   
    50   45   52 1   
    51   46   47 1   
    52   46   48 1   
    53   53   54 1   
    54   53   57 1   
    55   54   55 1   
    56   54   58 1   
    57   54   59 1   
    58   55   56 2   
    59   55   60 1   
    60   60   61 1   
    61   60   68 1   
    62   61   62 1   
    63   61   64 1   
    64   61   69 1   
    65   62   63 2   
    66   62   72 1   
    67   64   65 1   
    68   64   70 1   
    69   64   71 1   
    70   65   66 1   
    71   65   67 1   
    72   72   73 1   
    73   72   76 1   
    74   73   74 1   
    75   73   77 1   
    76   73   78 1   
    77   74   75 2   
    78   74   79 1   
    79   79   80 1   
    80   79   86 1   
    81   80   81 1   
    82   80   83 1   
    83   80   87 1   
    84   81   82 2   
    85   81   93 1   
    86   83   84 1   
    87   83   85 1   
    88   83   88 1   
    89   84   90 1   
    90   84   91 1   
    91   84   92 1   
    92   85   89 1   
    93   93   94 1   
    94   93  101 1   
    95   94   95 1   
    96   94   97 1   
    97   94  102 1   
    98   95   96 2   
    99   95  112 1   
   100   97   98 1   
   101   97   99 1   
   102   97  103 1   
   103   98  100 1   
   104   98  104 1   
   105   98  105 1   
   106   99  106 1   
   107   99  107 1   
   108   99  108 1   
   109  100  109 1   
   110  100  110 1   
   111  100  111 1   
   112  112  113 1   
   113  112  119 1   
   114  113  114 1   
   115  113  116 1   
   116  113  120 1   
   117  114  115 2   
   118  114  126 1   
   119  116  117 1   
   120  116  118 1   
   121  116  121 1   
   122  117  123 1   
   123  117  124 1   
   124  117  125 1   
   125  118  122 1   
   126  126  127 1   
   127  126  133 1   
   128  127  128 1   
   129  127  130 1   
   130  127  134 1   
   131  128  129 2   
   132  128  140 1   
   133  130  131 1   
   134  130  132 1   
   135  130  135 1   
   136  131  137 1   
   137  131  138 1   
   138  131  139 1   
   139  132  136 1   
   140  140  141 1   
   141  140  149 1   
   142  141  142 1   
   143  141  144 1   
   144  141  150 1   
   145  142  143 2   
   146  142  162 1   
   147  144  145 1   
   148  144  151 1   
   149  144  152 1   
   150  145  146 1   
   151  145  153 1   
   152  145  154 1   
   153  146  147 1   
   154  146  155 1   
   155  146  156 1   
   156  147  148 1   
   157  147  157 1   
   158  147  158 1   
   159  148  159 1   
   160  148  160 1   
   161  148  161 1   
   162  162  163 1   
   163  162  171 1   
   164  163  164 1   
   165  163  166 1   
   166  163  172 1   
   167  164  165 2   
   168  164  177 1   
   169  166  167 1   
   170  166  173 1   
   171  166  174 1   
   172  167  168 1   
   173  167  175 1   
   174  167  176 1   
   175  168  169 1   
   176  168  170 1   
   177  177  178 1   
   178  177  182 1   
   179  178  179 1   
   180  178  180 1   
   181  178  181 1   
   182  184  185 1   
   183  184  186 1   
   184  187  188 1   
   185  187  189 1   
   186  190  191 1   
   187  190  192 1   
@<TRIPOS>SUBSTRUCTURE
     1 MOL         1 TEMP              0 ****  ****    0 ROOT
