@<TRIPOS>MOLECULE
MOL
  184   179     1     0     0
SMALL
resp


@<TRIPOS>ATOM
      1 C1         -1.2970   -6.1330   -2.8830 c3        1 MOL     -0.405119
      2 C2         -2.5590   -6.0740   -2.0760 c         1 MOL      0.761225
      3 O1         -2.5590   -6.5000   -0.8880 o         1 MOL     -0.602338
      4 H1         -0.8870   -5.1300   -2.9900 hc        1 MOL      0.105436
      5 H2         -0.5710   -6.7700   -2.3760 hc        1 MOL      0.105436
      6 H3         -1.5150   -6.5430   -3.8690 hc        1 MOL      0.105436
      7 N1         -3.6280   -5.4920   -2.6250 n         1 MOL     -0.758285
      8 C3         -5.0090   -5.7260   -2.1060 c3        1 MOL      0.457165
      9 C4         -5.3700   -4.7740   -0.9460 c         1 MOL      0.435366
     10 O2         -6.2110   -3.8750   -1.0960 o         1 MOL     -0.521026
     11 C5         -6.0340   -5.7800   -3.2160 c3        1 MOL     -0.273117
     12 C6         -7.3070   -6.4940   -2.8400 c         1 MOL      0.728116
     13 O3         -7.4740   -6.9880   -1.6980 o         1 MOL     -0.734596
     14 O4         -8.1990   -6.6170   -3.7410 o         1 MOL     -0.734596
     15 H4         -3.7440   -4.9920   -3.4950 hn        1 MOL      0.344926
     16 H5         -4.9830   -6.7370   -1.6850 h1        1 MOL     -0.017844
     17 H6         -5.6290   -6.2040   -4.1360 hc        1 MOL      0.015389
     18 H7         -6.2950   -4.7560   -3.4640 hc        1 MOL      0.015389
     19 N2         -4.6730   -4.8450    0.1740 n         1 MOL     -0.551743
     20 C7         -4.8250   -4.0070    1.3570 c3        1 MOL      0.473595
     21 C8         -3.5010   -3.8560    2.1860 c         1 MOL      0.251113
     22 O5         -2.4760   -4.6060    2.0590 o         1 MOL     -0.491067
     23 C9         -5.7900   -4.6820    2.2610 c3        1 MOL     -0.484179
     24 H8         -4.0340   -5.6300    0.1420 hn        1 MOL      0.299531
     25 H9         -5.1850   -3.0720    0.9310 h1        1 MOL     -0.029935
     26 H10        -6.6930   -4.9720    1.7340 hc        1 MOL      0.121343
     27 H11        -5.4810   -5.6680    2.6070 hc        1 MOL      0.121343
     28 H12        -6.0500   -4.0960    3.1490 hc        1 MOL      0.121343
     29 N3         -3.4320   -2.8660    3.0520 n         1 MOL     -0.193958
     30 C10        -4.4070   -1.8670    3.4640 c3        1 MOL      0.011977
     31 C11        -4.4770   -0.6700    2.5430 c         1 MOL      0.523820
     32 O6         -3.5080   -0.2950    1.9240 o         1 MOL     -0.478515
     33 C12        -4.0500   -1.4490    4.8720 c3        1 MOL     -0.086999
     34 C13        -2.6680   -0.9220    5.0110 c         1 MOL      0.757774
     35 O7         -1.7600   -1.0210    4.1150 o         1 MOL     -0.716164
     36 O8         -2.5160   -0.1750    5.9880 o         1 MOL     -0.716164
     37 H13        -2.4810   -2.8380    3.3740 hn        1 MOL      0.195748
     38 H14        -5.4020   -2.3010    3.6150 h1        1 MOL      0.008181
     39 H15        -3.9580   -2.3360    5.4930 hc        1 MOL      0.008692
     40 H16        -4.7920   -0.7250    5.2220 hc        1 MOL      0.008692
     41 N4         -5.5640    0.0450    2.6200 n         1 MOL     -0.424852
     42 C14        -5.7900    1.1980    1.7380 c3        1 MOL     -0.137714
     43 C15        -5.8600    1.0800    0.2320 c         1 MOL      0.629169
     44 O9         -6.1270   -0.0520   -0.2630 o         1 MOL     -0.518470
     45 H17        -6.3540   -0.2850    3.1440 hn        1 MOL      0.314702
     46 H18        -5.0470    1.9820    1.8910 h1        1 MOL      0.105486
     47 H19        -6.7600    1.6020    1.9850 h1        1 MOL      0.105486
     48 N5         -5.8240    2.0890   -0.6580 n         1 MOL     -0.691998
     49 C16        -5.6880    3.5070   -0.3490 c3        1 MOL      0.194335
     50 C17        -4.9840    4.2140   -1.5720 c         1 MOL      0.660796
     51 O10        -4.5430    3.5090   -2.4800 o         1 MOL     -0.515736
     52 C18        -7.0160    4.1770   -0.0690 c3        1 MOL     -0.313164
     53 C19        -7.9790    4.1260   -1.2400 c         1 MOL      0.604786
     54 N6         -8.6020    3.0080   -1.3110 n         1 MOL     -0.639832
     55 O11        -8.1790    4.9900   -2.0790 o         1 MOL     -0.556742
     56 H20        -5.7860    1.8410   -1.6430 hn        1 MOL      0.370105
     57 H21        -5.0190    3.6450    0.4960 h1        1 MOL     -0.009687
     58 H22        -6.7620    5.2040    0.1940 hc        1 MOL      0.059574
     59 H23        -7.4140    3.6380    0.7910 hc        1 MOL      0.059574
     60 H24        -8.4420    2.3840   -0.5300 hn        1 MOL      0.344236
     61 H25        -9.3760    2.9450   -1.9610 hn        1 MOL      0.344236
     62 N7         -4.8790    5.5380   -1.4560 n         1 MOL     -0.328655
     63 C20        -4.3000    6.3770   -2.5100 c3        1 MOL     -0.375695
     64 C21        -2.7480    6.3130   -2.6230 c         1 MOL      0.633314
     65 O12        -2.1490    6.9390   -3.4990 o         1 MOL     -0.550760
     66 H26        -5.2140    5.9540   -0.5990 hn        1 MOL      0.282495
     67 H27        -4.3220    7.4160   -2.1730 h1        1 MOL      0.177401
     68 H28        -4.6880    6.2740   -3.5280 h1        1 MOL      0.177401
     69 N8         -2.0180    5.5540   -1.7460 n         1 MOL     -0.467047
     70 C22        -0.5420    5.7020   -1.6670 c3        1 MOL      0.207163
     71 C23         0.2500    4.3230   -1.6690 c         1 MOL      0.531916
     72 O13        -0.3550    3.2380   -1.7030 o         1 MOL     -0.576065
     73 C24        -0.2170    6.5610   -0.4470 c3        1 MOL      0.187114
     74 C25        -1.1610    7.7930   -0.3480 c3        1 MOL     -0.283151
     75 O14        -0.4000    5.8650    0.7730 oh        1 MOL     -0.657678
     76 H29        -2.4970    5.0050   -1.0560 hn        1 MOL      0.236785
     77 H30        -0.2280    6.2170   -2.5730 h1        1 MOL      0.036387
     78 H31         0.8140    6.9020   -0.5210 h1        1 MOL      0.026968
     79 H32         0.0740    6.3840    1.4250 ho        1 MOL      0.460909
     80 H33        -1.4310    8.2050   -1.3240 hc        1 MOL      0.068390
     81 H34        -2.1300    7.4490    0.0210 hc        1 MOL      0.068390
     82 H35        -0.8320    8.5790    0.3180 hc        1 MOL      0.068390
     83 N9          1.5640    4.4340   -1.4920 n         1 MOL     -0.418823
     84 C26         2.5980    3.4200   -1.2300 c3        1 MOL      0.164813
     85 C27         3.1480    3.6100    0.1570 c         1 MOL      0.224095
     86 O15         3.4750    4.6890    0.5500 o         1 MOL     -0.508398
     87 C28         3.6910    3.3630   -2.3220 c3        1 MOL      0.152238
     88 C29         4.7850    2.2550   -2.1730 c3        1 MOL     -0.000739
     89 C30         2.9690    3.2230   -3.6960 c3        1 MOL     -0.295630
     90 C31         5.8980    2.2060   -3.1220 c3        1 MOL     -0.325695
     91 H36         1.8880    5.3900   -1.6180 hn        1 MOL      0.234249
     92 H37         2.2060    2.4090   -1.1410 h1        1 MOL      0.150001
     93 H38         4.1170    4.3620   -2.2220 hc        1 MOL     -0.010769
     94 H39         4.3330    1.2620   -2.1580 hc        1 MOL      0.042072
     95 H40         5.2440    2.2880   -1.1820 hc        1 MOL      0.042072
     96 H41         2.4310    2.2750   -3.6680 hc        1 MOL      0.064674
     97 H42         2.1920    3.9700   -3.8420 hc        1 MOL      0.064674
     98 H43         3.6420    3.2310   -4.5540 hc        1 MOL      0.064674
     99 H44         6.4260    3.1610   -3.1250 hc        1 MOL      0.075077
    100 H45         6.5380    1.3620   -2.8630 hc        1 MOL      0.075077
    101 H46         5.4830    2.1170   -4.1250 hc        1 MOL      0.075077
    102 N10         3.3990    2.4600    0.8080 n         1 MOL      0.026210
    103 C32         4.0870    2.3750    2.1220 c3        1 MOL      0.124810
    104 C33         5.4350    1.5770    2.0900 c         1 MOL      0.301596
    105 O16         6.2820    1.6610    3.0150 o         1 MOL     -0.538806
    106 C34         3.1890    1.8510    3.2910 c3        1 MOL     -0.264628
    107 C35         1.7480    2.3580    3.3770 c         1 MOL      0.917256
    108 O17         1.4550    3.5600    3.2620 o         1 MOL     -0.789999
    109 O18         0.8280    1.5670    3.6450 o         1 MOL     -0.789999
    110 H47         2.8630    1.6280    0.5850 hn        1 MOL     -0.092090
    111 H48         4.3240    3.3970    2.4110 h1        1 MOL      0.053018
    112 H49         3.7670    1.9850    4.2010 hc        1 MOL      0.078166
    113 H50         3.1970    0.7820    3.1020 hc        1 MOL      0.078166
    114 N11         5.5070    0.6600    1.1280 n         1 MOL     -0.226917
    115 C36         6.5520   -0.3950    0.9980 c3        1 MOL      0.433775
    116 C37         5.9970   -1.6870    0.4390 c         1 MOL      0.214016
    117 O19         6.4020   -2.1340   -0.6910 o         1 MOL     -0.469506
    118 C38         7.5790    0.2740    0.1320 c3        1 MOL     -0.409815
    119 C39         8.9400   -0.4930   -0.0480 ca        1 MOL      0.150593
    120 C40         9.5730   -1.2530    1.0110 ca        1 MOL     -0.136219
    121 C41         9.6670   -0.2100   -1.2450 ca        1 MOL     -0.136219
    122 C42        10.8040   -1.8700    0.7680 ca        1 MOL     -0.181878
    123 C43        10.9150   -0.8380   -1.5260 ca        1 MOL     -0.181878
    124 C44        11.4200   -1.6860   -0.4900 ca        1 MOL     -0.072132
    125 H51         4.7170    0.7110    0.5100 hn        1 MOL      0.062149
    126 H52         6.9170   -0.7540    1.9610 h1        1 MOL     -0.006236
    127 H53         7.8940    1.2330    0.5560 hc        1 MOL      0.130500
    128 H54         7.1520    0.5120   -0.8450 hc        1 MOL      0.130500
    129 H55         9.1740   -1.3190    2.0170 ha        1 MOL      0.112360
    130 H56         9.1360    0.4620   -1.9100 ha        1 MOL      0.112360
    131 H57        11.2170   -2.5560    1.4960 ha        1 MOL      0.131386
    132 H58        11.3760   -0.7860   -2.5000 ha        1 MOL      0.131386
    133 H59        12.4000   -2.1200   -0.5230 ha        1 MOL      0.074343
    134 N12         5.1000   -2.4110    1.1460 n         1 MOL     -0.044897
    135 C45         4.5300   -3.6970    0.7870 c3        1 MOL     -0.051050
    136 C46         3.9100   -3.8120   -0.6130 c         1 MOL      0.154399
    137 O20         4.0280   -4.8890   -1.2490 o         1 MOL     -0.480485
    138 C47         3.4510   -3.9780    1.8180 c3        1 MOL      0.238028
    139 C48         3.9100   -3.3580    3.1070 c3        1 MOL     -0.233109
    140 C49         4.5810   -2.0890    2.4960 c3        1 MOL     -0.039547
    141 H60         5.2870   -4.4610    0.9950 h1        1 MOL      0.076713
    142 H61         2.5560   -3.4190    1.5310 hc        1 MOL     -0.035335
    143 H62         3.1450   -5.0140    1.9530 hc        1 MOL     -0.035335
    144 H63         3.0320   -3.1200    3.7030 hc        1 MOL      0.081957
    145 H64         4.6260   -3.9840    3.6240 hc        1 MOL      0.081957
    146 H65         3.8190   -1.3450    2.3010 h1        1 MOL      0.067662
    147 H66         5.3790   -1.8210    3.1830 h1        1 MOL      0.067662
    148 N13         3.2430   -2.7840   -1.0600 n         1 MOL      0.098579
    149 C50         2.7050   -2.6670   -2.4130 c3        1 MOL     -0.343221
    150 C51         3.7960   -2.8840   -3.5220 c         1 MOL      0.512690
    151 O21         3.4940   -3.4000   -4.5710 o         1 MOL     -0.547326
    152 C52         2.1830   -1.2870   -2.6760 c3        1 MOL      0.168849
    153 C53         1.2390   -0.8070   -1.5000 c3        1 MOL     -0.250931
    154 C54         1.9510   -0.2080   -0.2520 c         1 MOL      0.430019
    155 O22         1.3430    0.0300    0.8420 o         1 MOL     -0.514421
    156 O23         3.1950   -0.1160   -0.2690 o         1 MOL     -0.514421
    157 H67         3.1740   -2.0030   -0.4260 hn        1 MOL      0.185358
    158 H68         1.9930   -3.5000   -2.4660 h1        1 MOL      0.151264
    159 H69         1.5690   -1.4020   -3.5750 hc        1 MOL      0.001790
    160 H70         2.9530   -0.5320   -2.8470 hc        1 MOL      0.001790
    161 H71         0.6500   -1.6700   -1.1910 hc        1 MOL      0.050572
    162 H72         0.6140    0.0130   -1.8660 hc        1 MOL      0.050572
    163 N14         5.0500   -2.4530   -3.3070 n         1 MOL     -0.100740
    164 C55         6.1380   -2.7530   -4.1590 c3        1 MOL     -0.173188
    165 H73         6.8020   -1.8910   -4.2180 h1        1 MOL      0.069598
    166 H74         6.6880   -3.6070   -3.7610 h1        1 MOL      0.069598
    167 H75         5.7650   -2.9930   -5.1550 h1        1 MOL      0.069598
    168 H76         5.1860   -1.7780   -2.5730 hn        1 MOL      0.163932
    169 Ca1        -0.9460    0.6060    2.2430 Ca        1 MOL      1.722103
    170 O24        -1.5130   -1.8100    0.5700 oh        1 MOL     -0.857633
    171 H77        -1.0120   -2.3340   -0.0600 ho        1 MOL      0.421282
    172 H78        -2.3290   -1.6140    0.1140 ho        1 MOL      0.421282
    173 O25         1.3300   -1.5700    3.0820 oh        1 MOL     -0.857633
    174 H79         1.5350   -1.2600    2.1960 ho        1 MOL      0.421282
    175 H80         1.1870   -2.5080    2.9780 ho        1 MOL      0.421282
    176 O26        -0.0770    3.0230    1.2790 oh        1 MOL     -0.857633
    177 H81         0.1500    3.5780    0.5310 ho        1 MOL      0.421282
    178 H82         0.3280    3.4560    2.0220 ho        1 MOL      0.421282
    179 O27        -1.7400    1.0030   -0.3850 oh        1 MOL     -0.857633
    180 H83        -1.2370    1.6590   -0.8630 ho        1 MOL      0.421282
    181 H84        -2.4060    0.7040   -1.0030 ho        1 MOL      0.421282
    182 O28        -2.7260    2.4370    2.9440 oh        1 MOL     -0.857633
    183 H85        -2.7390    2.8470    3.8030 ho        1 MOL      0.421282
    184 H86        -2.9370    3.1480    2.3390 ho        1 MOL      0.421282
@<TRIPOS>BOND
     1    1    2 1   
     2    1    4 1   
     3    1    5 1   
     4    1    6 1   
     5    2    3 2   
     6    2    7 1   
     7    7    8 1   
     8    7   15 1   
     9    8    9 1   
    10    8   11 1   
    11    8   16 1   
    12    9   10 2   
    13    9   19 1   
    14   11   12 1   
    15   11   17 1   
    16   11   18 1   
    17   12   13 1   
    18   12   14 1   
    19   19   20 1   
    20   19   24 1   
    21   20   21 1   
    22   20   23 1   
    23   20   25 1   
    24   21   22 2   
    25   21   29 1   
    26   23   26 1   
    27   23   27 1   
    28   23   28 1   
    29   29   30 1   
    30   29   37 1   
    31   30   31 1   
    32   30   33 1   
    33   30   38 1   
    34   31   32 2   
    35   31   41 1   
    36   33   34 1   
    37   33   39 1   
    38   33   40 1   
    39   34   35 1   
    40   34   36 1   
    41   41   42 1   
    42   41   45 1   
    43   42   43 1   
    44   42   46 1   
    45   42   47 1   
    46   43   44 2   
    47   43   48 1   
    48   48   49 1   
    49   48   56 1   
    50   49   50 1   
    51   49   52 1   
    52   49   57 1   
    53   50   51 2   
    54   50   62 1   
    55   52   53 1   
    56   52   58 1   
    57   52   59 1   
    58   53   54 1   
    59   53   55 2   
    60   54   60 1   
    61   54   61 1   
    62   62   63 1   
    63   62   66 1   
    64   63   64 1   
    65   63   67 1   
    66   63   68 1   
    67   64   65 2   
    68   64   69 1   
    69   69   70 1   
    70   69   76 1   
    71   70   71 1   
    72   70   73 1   
    73   70   77 1   
    74   71   72 2   
    75   71   83 1   
    76   73   74 1   
    77   73   75 1   
    78   73   78 1   
    79   74   80 1   
    80   74   81 1   
    81   74   82 1   
    82   75   79 1   
    83   83   84 1   
    84   83   91 1   
    85   84   85 1   
    86   84   87 1   
    87   84   92 1   
    88   85   86 2   
    89   85  102 1   
    90   87   88 1   
    91   87   89 1   
    92   87   93 1   
    93   88   90 1   
    94   88   94 1   
    95   88   95 1   
    96   89   96 1   
    97   89   97 1   
    98   89   98 1   
    99   90   99 1   
   100   90  100 1   
   101   90  101 1   
   102  102  103 1   
   103  102  110 1   
   104  103  104 1   
   105  103  106 1   
   106  103  111 1   
   107  104  105 2   
   108  104  114 1   
   109  106  107 1   
   110  106  112 1   
   111  106  113 1   
   112  107  108 1   
   113  107  109 1   
   114  114  115 1   
   115  114  125 1   
   116  115  116 1   
   117  115  118 1   
   118  115  126 1   
   119  116  117 2   
   120  116  134 1   
   121  118  119 1   
   122  118  127 1   
   123  118  128 1   
   124  119  120 ar  
   125  119  121 ar  
   126  120  122 ar  
   127  120  129 1   
   128  121  123 ar  
   129  121  130 1   
   130  122  124 ar  
   131  122  131 1   
   132  123  124 ar  
   133  123  132 1   
   134  124  133 1   
   135  134  135 1   
   136  134  140 1   
   137  135  136 1   
   138  135  138 1   
   139  135  141 1   
   140  136  137 2   
   141  136  148 1   
   142  138  139 1   
   143  138  142 1   
   144  138  143 1   
   145  139  140 1   
   146  139  144 1   
   147  139  145 1   
   148  140  146 1   
   149  140  147 1   
   150  148  149 1   
   151  148  157 1   
   152  149  150 1   
   153  149  152 1   
   154  149  158 1   
   155  150  151 2   
   156  150  163 1   
   157  152  153 1   
   158  152  159 1   
   159  152  160 1   
   160  153  154 1   
   161  153  161 1   
   162  153  162 1   
   163  154  155 1   
   164  154  156 1   
   165  163  164 1   
   166  163  168 1   
   167  164  165 1   
   168  164  166 1   
   169  164  167 1   
   170  170  171 1   
   171  170  172 1   
   172  173  174 1   
   173  173  175 1   
   174  176  177 1   
   175  176  178 1   
   176  179  180 1   
   177  179  181 1   
   178  182  183 1   
   179  182  184 1   
@<TRIPOS>SUBSTRUCTURE
     1 MOL         1 TEMP              0 ****  ****    0 ROOT
