@<TRIPOS>MOLECULE
MOL
  195   189     1     0     0
SMALL
resp


@<TRIPOS>ATOM
      1 C1          1.0040   -3.3440    3.8610 c3        1 MOL      0.041318
      2 C2          1.4520   -3.1450    2.4560 c         1 MOL      0.630073
      3 O1          2.0920   -2.1540    2.1380 o         1 MOL     -0.528751
      4 H1          1.3070   -2.4880    4.4630 hc        1 MOL     -0.038199
      5 H2         -0.0820   -3.4390    3.8860 hc        1 MOL     -0.038199
      6 H3          1.4580   -4.2500    4.2620 hc        1 MOL     -0.038199
      7 N1          1.2160   -4.0580    1.6130 n         1 MOL     -0.578058
      8 C3          1.7270   -4.1580    0.2680 c3        1 MOL     -0.044307
      9 C4          3.2090   -4.0060    0.0200 c         1 MOL      0.773259
     10 O2          3.6570   -3.1890   -0.8330 o         1 MOL     -0.526385
     11 C5          0.8130   -3.2750   -0.6760 c3        1 MOL     -0.499883
     12 C6         -0.6890   -3.5910   -0.5360 c         1 MOL      1.119559
     13 O3         -1.5830   -2.7080   -0.4330 o         1 MOL     -0.877266
     14 O4         -1.0630   -4.7900   -0.5010 o         1 MOL     -0.877266
     15 H4          0.6480   -4.8420    1.8850 hn        1 MOL      0.291617
     16 H5          1.5230   -5.1580   -0.1100 h1        1 MOL      0.097863
     17 H6          1.0520   -3.4900   -1.7170 hc        1 MOL      0.165822
     18 H7          0.9550   -2.2000   -0.5500 hc        1 MOL      0.165822
     19 N2          4.0510   -4.7910    0.6950 n         1 MOL     -0.645501
     20 C7          5.5080   -4.6790    0.5800 c3        1 MOL      0.036922
     21 C8          6.0810   -5.3460   -0.6860 c         1 MOL      0.482533
     22 O5          5.5650   -6.4080   -1.0100 o         1 MOL     -0.576527
     23 C9          6.1840   -5.1480    1.9310 c3        1 MOL      0.058899
     24 C10         6.3020   -6.7090    2.0140 c3        1 MOL      0.101056
     25 C11         5.3580   -4.5500    3.0820 c3        1 MOL     -0.154639
     26 C12         7.0490   -7.0880    3.2820 c3        1 MOL     -0.161008
     27 H8          3.7090   -5.4030    1.4210 hn        1 MOL      0.338665
     28 H9          5.7720   -3.6270    0.5870 h1        1 MOL      0.074727
     29 H10         7.1830   -4.7190    1.9690 hc        1 MOL      0.097026
     30 H11         6.9000   -7.0680    1.1800 hc        1 MOL     -0.003828
     31 H12         5.3280   -7.1880    1.9350 hc        1 MOL     -0.003828
     32 H13         5.2010   -3.4950    2.8540 hc        1 MOL      0.037840
     33 H14         4.3430   -4.9480    3.1570 hc        1 MOL      0.037840
     34 H15         5.8230   -4.6250    4.0660 hc        1 MOL      0.037840
     35 H16         7.4370   -8.1010    3.1980 hc        1 MOL      0.021023
     36 H17         7.8770   -6.4150    3.5190 hc        1 MOL      0.021023
     37 H18         6.2940   -7.2670    4.0460 hc        1 MOL      0.021023
     38 N3          7.1390   -4.8310   -1.3660 n         1 MOL     -0.469805
     39 C13         7.7140   -3.5470   -1.0070 c3        1 MOL      0.109217
     40 C14         7.0380   -2.2950   -1.5060 c         1 MOL      0.791729
     41 O6          7.1030   -1.2120   -0.9500 o         1 MOL     -0.530827
     42 C15         9.1650   -3.5030   -1.5460 c3        1 MOL     -0.099312
     43 C16        10.0890   -2.4830   -0.9270 c         1 MOL      0.622516
     44 O7          9.7820   -1.9870    0.1810 o         1 MOL     -0.702133
     45 O8         11.0350   -2.0850   -1.6890 o         1 MOL     -0.702133
     46 H19         7.3810   -5.3440   -2.1920 hn        1 MOL      0.290236
     47 H20         7.7050   -3.4210    0.0780 h1        1 MOL     -0.053358
     48 H21         9.1130   -3.2900   -2.6070 hc        1 MOL     -0.014413
     49 H22         9.6410   -4.4910   -1.5480 hc        1 MOL     -0.014413
     50 N4          6.3520   -2.4410   -2.6290 n         1 MOL     -0.541961
     51 C17         5.3150   -1.5220   -3.0970 c3        1 MOL     -0.156982
     52 C18         5.7830   -0.0670   -3.3850 c         1 MOL      0.598481
     53 O9          6.8290    0.1310   -3.9820 o         1 MOL     -0.537573
     54 H23         6.2990   -3.3690   -3.0260 hn        1 MOL      0.296836
     55 H24         4.4980   -1.5400   -2.3810 h1        1 MOL      0.088958
     56 H25         4.9350   -2.0190   -3.9930 h1        1 MOL      0.088958
     57 N5          4.9120    0.8970   -3.0700 n         1 MOL     -0.546394
     58 C19         5.0690    2.3050   -3.4620 c3        1 MOL      0.162419
     59 C20         5.6910    3.0370   -2.2620 c         1 MOL      0.342668
     60 O10         6.2090    4.1300   -2.4350 o         1 MOL     -0.557517
     61 C21         3.7710    3.0430   -3.7440 c3        1 MOL     -0.175376
     62 C22         2.6180    2.7450   -2.7720 c         1 MOL      0.776112
     63 O11         1.9680    1.7330   -3.0120 o         1 MOL     -0.707960
     64 O12         2.2740    3.4960   -1.8230 o         1 MOL     -0.707960
     65 H26         4.1050    0.6600   -2.5100 hn        1 MOL      0.295224
     66 H27         5.6610    2.3860   -4.3740 h1        1 MOL      0.078385
     67 H28         3.4120    2.6090   -4.6730 hc        1 MOL      0.014324
     68 H29         3.9370    4.1050   -3.9530 hc        1 MOL      0.014324
     69 N6          5.6140    2.5030   -1.0790 n         1 MOL      0.007435
     70 C23         6.0950    3.0690    0.1990 c3        1 MOL     -0.487941
     71 C24         5.2230    4.1370    0.7790 c         1 MOL      0.645087
     72 O13         5.5240    4.6290    1.8440 o         1 MOL     -0.634597
     73 H30         5.3410    1.5380   -1.0170 hn        1 MOL      0.198985
     74 H31         7.0760    3.5450    0.1060 h1        1 MOL      0.181162
     75 H32         6.0580    2.2440    0.9030 h1        1 MOL      0.181162
     76 N7          4.1870    4.5210    0.0740 n         1 MOL      0.024041
     77 C25         3.3140    5.6780    0.3270 c3        1 MOL      0.026507
     78 C26         2.5270    5.6330    1.6360 c         1 MOL      0.371427
     79 O14         1.7880    6.5900    1.8620 o         1 MOL     -0.528883
     80 C27         3.9620    7.0280    0.0160 c3        1 MOL      0.139345
     81 C28         4.3630    7.1020   -1.4100 c3        1 MOL     -0.139892
     82 C29         4.5370    8.6130   -1.8690 c         1 MOL      0.581372
     83 N8          4.2040    8.9700   -3.0820 n         1 MOL     -0.699768
     84 O15         4.7720    9.5320   -1.0840 o         1 MOL     -0.566171
     85 H33         3.8910    3.8810   -0.6500 hn        1 MOL     -0.066254
     86 H34         2.5220    5.6010   -0.4160 h1        1 MOL      0.114055
     87 H35         4.8440    7.1650    0.6340 hc        1 MOL     -0.015423
     88 H36         3.2480    7.8140    0.2750 hc        1 MOL     -0.015423
     89 H37         3.5070    6.7700   -1.9990 hc        1 MOL      0.029488
     90 H38         5.2470    6.5010   -1.6180 hc        1 MOL      0.029488
     91 H39         4.1160    8.2270   -3.7620 hn        1 MOL      0.322655
     92 H40         4.2620    9.9310   -3.3890 hn        1 MOL      0.322655
     93 N9          2.5760    4.5890    2.4460 n         1 MOL     -0.243324
     94 C30         1.9140    4.5280    3.7190 c3        1 MOL     -0.042636
     95 C31         0.6910    3.6170    3.9060 c         1 MOL      0.607377
     96 O16         0.0150    3.6690    4.9280 o         1 MOL     -0.593413
     97 C32         2.8350    4.3610    4.9060 c3        1 MOL      0.427575
     98 C33         3.3800    3.0210    5.0600 c3        1 MOL     -0.370213
     99 C34         4.0240    5.2990    5.0410 c3        1 MOL     -0.370213
    100 H41         3.2600    3.9040    2.1490 hn        1 MOL      0.176370
    101 H42         1.4060    5.4850    3.8030 h1        1 MOL      0.063486
    102 H43         2.2120    4.6680    5.7520 hc        1 MOL     -0.069946
    103 H44         4.1360    3.0570    5.8420 hc        1 MOL      0.074687
    104 H45         2.6940    2.3000    5.5110 hc        1 MOL      0.074687
    105 H46         3.8520    2.6740    4.1390 hc        1 MOL      0.074687
    106 H47         4.4410    5.2160    6.0410 hc        1 MOL      0.074687
    107 H48         4.7930    4.9120    4.3700 hc        1 MOL      0.074687
    108 H49         3.8750    6.3390    4.7560 hc        1 MOL      0.074687
    109 N10         0.3290    2.7910    2.8760 n         1 MOL     -0.486387
    110 C35        -0.7530    1.8580    2.9170 c3        1 MOL      0.130162
    111 C36        -1.4050    1.8300    1.4740 c         1 MOL      0.585077
    112 O17        -0.7680    2.1800    0.4420 o         1 MOL     -0.488394
    113 C37        -0.0880    0.5760    3.3780 c3        1 MOL     -0.118468
    114 C38        -1.0960   -0.3050    4.0500 c         1 MOL      0.620542
    115 N11        -0.9670   -0.5560    5.3190 n         1 MOL     -0.740693
    116 O18        -2.1100   -0.7310    3.4830 o         1 MOL     -0.553570
    117 H50         0.9380    2.7790    2.0700 hn        1 MOL      0.247500
    118 H51        -1.4100    2.1790    3.7280 h1        1 MOL      0.068851
    119 H52         0.7510    0.7380    4.0590 hc        1 MOL      0.056842
    120 H53         0.2350   -0.0360    2.5380 hc        1 MOL      0.056842
    121 H54        -0.1060   -0.3460    5.7930 hn        1 MOL      0.352315
    122 H55        -1.5760   -1.2860    5.6880 hn        1 MOL      0.352315
    123 N12        -2.6760    1.3500    1.4090 n         1 MOL     -0.587961
    124 C39        -3.5290    1.4230    0.2210 c3        1 MOL      0.001421
    125 C40        -4.9670    1.4130    0.5930 c         1 MOL      0.738637
    126 O19        -5.3960    0.7080    1.5150 o         1 MOL     -0.573898
    127 C41        -3.2280    0.3560   -0.8940 c3        1 MOL      0.072142
    128 C42        -3.8010    0.6300   -2.2320 ca        1 MOL     -0.019354
    129 C43        -4.8650   -0.0990   -2.7250 ca        1 MOL     -0.110146
    130 C44        -3.3470    1.7750   -2.9120 ca        1 MOL     -0.110146
    131 C45        -5.4460    0.2780   -3.9150 ca        1 MOL     -0.373913
    132 C46        -3.8410    2.1340   -4.1580 ca        1 MOL     -0.373913
    133 C47        -4.9270    1.4490   -4.6460 ca        1 MOL      0.425552
    134 O20        -5.4850    1.8210   -5.8280 oh        1 MOL     -0.499469
    135 H56        -2.9320    0.8270    2.2340 hn        1 MOL      0.259053
    136 H57        -3.2660    2.3890   -0.2120 h1        1 MOL      0.057617
    137 H58        -3.6760   -0.5880   -0.5640 hc        1 MOL      0.059483
    138 H59        -2.1530    0.1720   -0.9680 hc        1 MOL      0.059483
    139 H60        -5.2200   -0.9690   -2.1880 ha        1 MOL      0.169996
    140 H61        -2.4370    2.2850   -2.6370 ha        1 MOL      0.169996
    141 H62        -6.3020   -0.2610   -4.2850 ha        1 MOL      0.184366
    142 H63        -3.3580    2.9270   -4.7180 ha        1 MOL      0.184366
    143 H64        -6.1330    1.1740   -6.0960 ho        1 MOL      0.343126
    144 N13        -5.8520    2.0470   -0.2020 n         1 MOL     -0.736361
    145 C48        -7.3130    1.8980   -0.1870 c3        1 MOL      0.146009
    146 C49        -7.9520    1.5210   -1.5260 c         1 MOL      0.721385
    147 O21        -7.9320    2.3350   -2.4360 o         1 MOL     -0.553542
    148 C50        -7.9310    3.1550    0.4340 c3        1 MOL     -0.000004
    149 C51        -9.4640    3.1590    0.4370 c3        1 MOL     -0.341821
    150 C52       -10.0820    4.5780    0.8840 c         1 MOL      0.736149
    151 O22       -10.0680    4.7810    2.1260 o         1 MOL     -0.728696
    152 O23       -10.6760    5.2910    0.0530 o         1 MOL     -0.728696
    153 H65        -5.5170    2.5040   -1.0420 hn        1 MOL      0.367183
    154 H66        -7.5910    1.1450    0.5540 h1        1 MOL      0.106566
    155 H67        -7.5700    4.0210   -0.1110 hc        1 MOL      0.025321
    156 H68        -7.5890    3.3460    1.4430 hc        1 MOL      0.025321
    157 H69        -9.8360    2.3840    1.1040 hc        1 MOL      0.071123
    158 H70        -9.7850    3.0470   -0.5970 hc        1 MOL      0.071123
    159 N14        -8.3890    0.2700   -1.6790 n         1 MOL     -0.722913
    160 C53        -7.9440   -0.9210   -1.0040 c3        1 MOL      0.070850
    161 C54        -8.5720   -1.0550    0.4120 c         1 MOL      0.518787
    162 O24        -9.7130   -0.6740    0.6580 o         1 MOL     -0.544323
    163 C55        -8.4060   -2.0620   -1.9740 c3        1 MOL     -0.190453
    164 C56        -8.0300   -3.4770   -1.5930 c3        1 MOL     -0.177635
    165 C57        -6.5610   -3.7460   -1.2720 c         1 MOL      0.489436
    166 O25        -5.9250   -4.7320   -1.7730 o         1 MOL     -0.637373
    167 O26        -5.9370   -3.0090   -0.4610 o         1 MOL     -0.637373
    168 H71        -9.0420    0.2090   -2.4430 hn        1 MOL      0.330159
    169 H72        -6.8550   -0.8300   -0.9930 h1        1 MOL     -0.060678
    170 H73        -7.8940   -1.8550   -2.9080 hc        1 MOL      0.105782
    171 H74        -9.4990   -2.0870   -2.0560 hc        1 MOL      0.105782
    172 H75        -8.3890   -4.1510   -2.3740 hc        1 MOL      0.066456
    173 H76        -8.4660   -3.6900   -0.6160 hc        1 MOL      0.066456
    174 N15        -7.7340   -1.4680    1.3560 n         1 MOL     -0.301266
    175 C58        -8.0480   -1.5650    2.7850 c3        1 MOL     -0.094461
    176 H77        -7.6370   -0.7000    3.3060 h1        1 MOL      0.061296
    177 H78        -9.1300   -1.5880    2.9190 h1        1 MOL      0.061296
    178 H79        -7.6120   -2.4760    3.1920 h1        1 MOL      0.061296
    179 H80        -6.7720   -1.6700    1.1040 hn        1 MOL      0.345955
    180 Ca1        -3.7610   -4.6540   -0.1430 Ca        1 MOL      1.747443
    181 O27        -2.9480   -2.4870    1.6030 oh        1 MOL     -0.867295
    182 H81        -2.8380   -1.6140    1.9890 ho        1 MOL      0.416565
    183 H82        -2.3540   -2.4960    0.8520 ho        1 MOL      0.416565
    184 O28        -3.4540   -6.6150   -1.9220 oh        1 MOL     -0.867295
    185 H83        -3.8510   -7.4270   -2.2370 ho        1 MOL      0.416565
    186 H84        -2.5330   -6.6740   -2.1680 ho        1 MOL      0.416565
    187 O29        -5.4920   -6.9340    0.2630 oh        1 MOL     -0.867295
    188 H85        -6.2500   -6.9900   -0.3040 ho        1 MOL      0.416565
    189 H86        -5.6800   -7.5480    0.9750 ho        1 MOL      0.416565
    190 O30        -5.2230   -4.4570    2.2140 oh        1 MOL     -0.867295
    191 H87        -5.4110   -3.9540    3.0070 ho        1 MOL      0.416565
    192 H88        -5.2500   -5.3680    2.5010 ho        1 MOL      0.416565
    193 O31        -3.3140   -3.5070   -2.6400 oh        1 MOL     -0.867295
    194 H89        -4.2100   -3.4860   -2.9700 ho        1 MOL      0.416565
    195 H90        -2.8190   -2.9580   -3.2490 ho        1 MOL      0.416565
@<TRIPOS>BOND
     1    1    2 1   
     2    1    4 1   
     3    1    5 1   
     4    1    6 1   
     5    2    3 2   
     6    2    7 1   
     7    7    8 1   
     8    7   15 1   
     9    8    9 1   
    10    8   11 1   
    11    8   16 1   
    12    9   10 2   
    13    9   19 1   
    14   11   12 1   
    15   11   17 1   
    16   11   18 1   
    17   12   13 1   
    18   12   14 1   
    19   19   20 1   
    20   19   27 1   
    21   20   21 1   
    22   20   23 1   
    23   20   28 1   
    24   21   22 2   
    25   21   38 1   
    26   23   24 1   
    27   23   25 1   
    28   23   29 1   
    29   24   26 1   
    30   24   30 1   
    31   24   31 1   
    32   25   32 1   
    33   25   33 1   
    34   25   34 1   
    35   26   35 1   
    36   26   36 1   
    37   26   37 1   
    38   38   39 1   
    39   38   46 1   
    40   39   40 1   
    41   39   42 1   
    42   39   47 1   
    43   40   41 2   
    44   40   50 1   
    45   42   43 1   
    46   42   48 1   
    47   42   49 1   
    48   43   44 1   
    49   43   45 1   
    50   50   51 1   
    51   50   54 1   
    52   51   52 1   
    53   51   55 1   
    54   51   56 1   
    55   52   53 2   
    56   52   57 1   
    57   57   58 1   
    58   57   65 1   
    59   58   59 1   
    60   58   61 1   
    61   58   66 1   
    62   59   60 2   
    63   59   69 1   
    64   61   62 1   
    65   61   67 1   
    66   61   68 1   
    67   62   63 1   
    68   62   64 1   
    69   69   70 1   
    70   69   73 1   
    71   70   71 1   
    72   70   74 1   
    73   70   75 1   
    74   71   72 2   
    75   71   76 1   
    76   76   77 1   
    77   76   85 1   
    78   77   78 1   
    79   77   80 1   
    80   77   86 1   
    81   78   79 2   
    82   78   93 1   
    83   80   81 1   
    84   80   87 1   
    85   80   88 1   
    86   81   82 1   
    87   81   89 1   
    88   81   90 1   
    89   82   83 1   
    90   82   84 2   
    91   83   91 1   
    92   83   92 1   
    93   93   94 1   
    94   93  100 1   
    95   94   95 1   
    96   94   97 1   
    97   94  101 1   
    98   95   96 2   
    99   95  109 1   
   100   97   98 1   
   101   97   99 1   
   102   97  102 1   
   103   98  103 1   
   104   98  104 1   
   105   98  105 1   
   106   99  106 1   
   107   99  107 1   
   108   99  108 1   
   109  109  110 1   
   110  109  117 1   
   111  110  111 1   
   112  110  113 1   
   113  110  118 1   
   114  111  112 2   
   115  111  123 1   
   116  113  114 1   
   117  113  119 1   
   118  113  120 1   
   119  114  115 1   
   120  114  116 2   
   121  115  121 1   
   122  115  122 1   
   123  123  124 1   
   124  123  135 1   
   125  124  125 1   
   126  124  127 1   
   127  124  136 1   
   128  125  126 2   
   129  125  144 1   
   130  127  128 1   
   131  127  137 1   
   132  127  138 1   
   133  128  129 ar  
   134  128  130 ar  
   135  129  131 ar  
   136  129  139 1   
   137  130  132 ar  
   138  130  140 1   
   139  131  133 ar  
   140  131  141 1   
   141  132  133 ar  
   142  132  142 1   
   143  133  134 1   
   144  134  143 1   
   145  144  145 1   
   146  144  153 1   
   147  145  146 1   
   148  145  148 1   
   149  145  154 1   
   150  146  147 2   
   151  146  159 1   
   152  148  149 1   
   153  148  155 1   
   154  148  156 1   
   155  149  150 1   
   156  149  157 1   
   157  149  158 1   
   158  150  151 1   
   159  150  152 1   
   160  159  160 1   
   161  159  168 1   
   162  160  161 1   
   163  160  163 1   
   164  160  169 1   
   165  161  162 2   
   166  161  174 1   
   167  163  164 1   
   168  163  170 1   
   169  163  171 1   
   170  164  165 1   
   171  164  172 1   
   172  164  173 1   
   173  165  166 1   
   174  165  167 1   
   175  174  175 1   
   176  174  179 1   
   177  175  176 1   
   178  175  177 1   
   179  175  178 1   
   180  181  182 1   
   181  181  183 1   
   182  184  185 1   
   183  184  186 1   
   184  187  188 1   
   185  187  189 1   
   186  190  191 1   
   187  190  192 1   
   188  193  194 1   
   189  193  195 1   
@<TRIPOS>SUBSTRUCTURE
     1 MOL         1 TEMP              0 ****  ****    0 ROOT
