@<TRIPOS>MOLECULE
MOL
  185   180     1     0     0
SMALL
resp


@<TRIPOS>ATOM
      1 C1         -5.9270    1.1430   -3.8690 c3        1 MOL     -0.499245
      2 C2         -6.5670    1.2900   -2.4650 c         1 MOL      0.738820
      3 O1         -6.0060    1.3030   -1.3450 o         1 MOL     -0.497429
      4 H1         -5.0960    1.8420   -3.9630 hc        1 MOL      0.132205
      5 H2         -5.5610    0.1240   -3.9970 hc        1 MOL      0.132205
      6 H3         -6.6720    1.3610   -4.6330 hc        1 MOL      0.132205
      7 N1         -7.9120    1.2340   -2.5140 n         1 MOL     -0.560555
      8 C3         -8.7720    1.1140   -1.3270 c3        1 MOL      0.163135
      9 C4         -8.5120   -0.0600   -0.3530 c         1 MOL      0.418441
     10 O2         -8.8020    0.0190    0.8590 o         1 MOL     -0.533603
     11 C5         -9.1050    2.5310   -0.6760 c3        1 MOL     -0.427039
     12 C6         -9.2300    3.7380   -1.6890 c         1 MOL      0.765037
     13 O3         -9.2050    4.9050   -1.2660 o         1 MOL     -0.675640
     14 O4         -9.4310    3.5840   -2.9120 o         1 MOL     -0.675640
     15 H4         -8.3590    1.2690   -3.4150 hn        1 MOL      0.291667
     16 H5         -9.6750    0.7450   -1.7970 h1        1 MOL      0.042634
     17 H6         -8.2670    2.7350   -0.0130 hc        1 MOL      0.112091
     18 H7         -9.9670    2.3730   -0.0360 hc        1 MOL      0.112091
     19 N2         -8.0130   -1.1940   -0.8520 n         1 MOL     -0.168186
     20 C7         -7.8510   -2.4740   -0.0280 c3        1 MOL      0.165931
     21 C8         -6.3720   -2.7820    0.2300 c         1 MOL      0.444220
     22 O5         -6.1250   -3.9140    0.6270 o         1 MOL     -0.540933
     23 C9         -8.5890   -3.5870   -0.7810 c3        1 MOL     -0.252691
     24 C10       -10.0490   -3.2140   -0.8720 c3        1 MOL      0.143875
     25 C11       -10.9490   -3.2220    0.3830 c3        1 MOL     -0.075698
     26 C12       -12.2890   -2.6160    0.1960 c3        1 MOL      0.127445
     27 N3        -13.1320   -2.8320    1.4350 n4        1 MOL     -0.342971
     28 H8         -7.7480   -1.2100   -1.8240 hn        1 MOL      0.161694
     29 H9         -8.3050   -2.4020    0.9560 h1        1 MOL      0.055466
     30 H10        -8.4820   -4.5450   -0.2550 hc        1 MOL      0.084838
     31 H11        -8.2420   -3.6570   -1.8060 hc        1 MOL      0.084838
     32 H12       -10.5570   -3.8680   -1.5860 hc        1 MOL     -0.027901
     33 H13       -10.1600   -2.2220   -1.3180 hc        1 MOL     -0.027901
     34 H14       -10.4880   -2.7490    1.2470 hc        1 MOL      0.029610
     35 H15       -11.2090   -4.2830    0.4860 hc        1 MOL      0.029610
     36 H16       -12.6760   -3.1210   -0.6850 hx        1 MOL      0.050503
     37 H17       -12.1080   -1.5610   -0.0240 hx        1 MOL      0.050503
     38 H18       -12.7540   -3.6900    1.8170 hn        1 MOL      0.298679
     39 H19       -12.8920   -2.0940    2.0870 hn        1 MOL      0.298679
     40 H20       -14.1100   -2.9870    1.2490 hn        1 MOL      0.298679
     41 N4         -5.3730   -1.9760   -0.0830 n         1 MOL     -0.320001
     42 C13        -3.9260   -2.2380   -0.0250 c3        1 MOL      0.003463
     43 C14        -3.4020   -2.7740    1.3410 c         1 MOL      0.583638
     44 O6         -3.7510   -2.2110    2.3760 o         1 MOL     -0.484589
     45 C15        -3.1000   -1.0130   -0.5670 c3        1 MOL     -0.000344
     46 C16        -1.6260   -1.3610   -0.6420 c         1 MOL      0.484092
     47 O7         -1.0760   -1.5220   -1.7180 o         1 MOL     -0.669773
     48 O8         -0.9160   -1.3670    0.4140 o         1 MOL     -0.669773
     49 H21        -5.6920   -1.1270   -0.5240 hn        1 MOL      0.127726
     50 H22        -3.6900   -2.9850   -0.7870 h1        1 MOL      0.045521
     51 H23        -3.2230   -0.1830    0.1260 hc        1 MOL      0.056753
     52 H24        -3.4520   -0.6950   -1.5570 hc        1 MOL      0.056753
     53 N5         -2.4690   -3.7160    1.2580 n         1 MOL     -0.439449
     54 C17        -2.0930   -4.5850    2.3870 c3        1 MOL     -0.044470
     55 C18        -1.1280   -3.8350    3.3870 c         1 MOL      0.443557
     56 O9         -0.8400   -4.3430    4.4790 o         1 MOL     -0.546284
     57 H25        -1.9340   -3.8320    0.4090 hn        1 MOL      0.248622
     58 H26        -1.6970   -5.5290    2.0280 h1        1 MOL      0.102538
     59 H27        -3.0230   -4.9310    2.8370 h1        1 MOL      0.102538
     60 N6         -0.6530   -2.6230    3.0470 n         1 MOL     -0.195131
     61 C19         0.0270   -1.6620    3.9290 c3        1 MOL      0.201722
     62 C20        -0.4420   -0.2230    3.7270 c         1 MOL      0.314857
     63 O10         0.2390    0.7040    4.1540 o         1 MOL     -0.524755
     64 C21         1.5490   -2.0340    3.9580 c3        1 MOL     -0.465079
     65 C22         2.3010   -1.4310    2.8120 c         1 MOL      0.885974
     66 N7          3.1970   -0.5430    3.1970 n         1 MOL     -0.772969
     67 O11         2.1980   -1.6980    1.6050 o         1 MOL     -0.760829
     68 H28        -0.7960   -2.3420    2.0900 hn        1 MOL      0.151614
     69 H29        -0.3070   -1.9860    4.9230 h1        1 MOL      0.072511
     70 H30         1.6230   -3.1190    3.8990 hc        1 MOL      0.139598
     71 H31         1.9480   -1.7690    4.9390 hc        1 MOL      0.139598
     72 H32         3.2950   -0.4070    4.2010 hn        1 MOL      0.333017
     73 H33         3.8220   -0.2040    2.4840 hn        1 MOL      0.333017
     74 N8         -1.6240   -0.0310    3.1060 n         1 MOL     -0.030841
     75 C23        -2.4260    1.2110    3.1120 c3        1 MOL     -0.254482
     76 C24        -1.9190    2.2280    2.1100 c         1 MOL      0.541893
     77 O12        -2.3120    3.4040    2.3140 o         1 MOL     -0.521370
     78 H34        -2.1370   -0.8700    2.8590 hn        1 MOL      0.032247
     79 H35        -2.4390    1.7030    4.0840 h1        1 MOL      0.143589
     80 H36        -3.4420    0.8680    2.9420 h1        1 MOL      0.143589
     81 N9         -1.0550    1.8420    1.1260 n         1 MOL     -0.322612
     82 C25        -0.4100    2.7290    0.2250 c3        1 MOL     -0.023331
     83 C26         0.9450    2.0420   -0.1630 c         1 MOL      0.384833
     84 O13         1.0210    0.8110   -0.2490 o         1 MOL     -0.432199
     85 C27        -1.2640    2.9670   -0.9910 c3        1 MOL      0.111302
     86 C28        -2.3920    3.9740   -0.8700 ca        1 MOL     -0.142159
     87 C29        -2.0710    5.3540   -0.7760 ca        1 MOL     -0.064340
     88 C30        -3.7390    3.6180   -0.7790 ca        1 MOL     -0.064340
     89 C31        -3.0570    6.3270   -0.7010 ca        1 MOL     -0.264997
     90 C32        -4.7670    4.5440   -0.5300 ca        1 MOL     -0.264997
     91 C33        -4.4530    5.8800   -0.4840 ca        1 MOL      0.398560
     92 O14        -5.5410    6.7060   -0.4080 oh        1 MOL     -0.569832
     93 H37        -0.7830    0.8690    1.1300 hn        1 MOL      0.243533
     94 H38        -0.1180    3.6530    0.7110 h1        1 MOL      0.078420
     95 H39        -1.8490    2.0710   -1.1980 hc        1 MOL      0.001007
     96 H40        -0.7320    3.0710   -1.9300 hc        1 MOL      0.001007
     97 H41        -1.0850    5.7900   -0.7910 ha        1 MOL      0.080324
     98 H42        -4.0690    2.5990   -0.9210 ha        1 MOL      0.080324
     99 H43        -2.8870    7.3950   -0.7760 ha        1 MOL      0.143848
    100 H44        -5.8020    4.2570   -0.4020 ha        1 MOL      0.143848
    101 H45        -6.3530    6.2940   -0.1370 ho        1 MOL      0.425714
    102 N10         2.0620    2.7190   -0.3880 n         1 MOL     -0.296242
    103 C34         3.3680    2.2820   -0.7960 c3        1 MOL      0.006465
    104 C35         4.2330    2.0060    0.4430 c         1 MOL      0.450915
    105 O15         4.8620    0.9540    0.5610 o         1 MOL     -0.391087
    106 C36         3.9780    3.3760   -1.7060 c3        1 MOL      0.212518
    107 C37         3.0050    3.8820   -2.8190 c3        1 MOL      0.040660
    108 C38         5.3050    3.0070   -2.2310 c3        1 MOL     -0.301798
    109 C39         2.7380    2.8090   -3.9230 c3        1 MOL     -0.152195
    110 H46         1.9240    3.7130   -0.2520 hn        1 MOL      0.205878
    111 H47         3.2890    1.3590   -1.3760 h1        1 MOL      0.024564
    112 H48         4.1390    4.2750   -1.1130 hc        1 MOL     -0.069084
    113 H49         3.4620    4.7530   -3.2860 hc        1 MOL      0.000543
    114 H50         2.0360    4.2310   -2.4600 hc        1 MOL      0.000543
    115 H51         6.0260    3.2620   -1.4450 hc        1 MOL      0.081635
    116 H52         5.3540    1.9630   -2.5410 hc        1 MOL      0.081635
    117 H53         5.6150    3.5730   -3.1050 hc        1 MOL      0.081635
    118 H54         2.0390    2.1060   -3.4650 hc        1 MOL      0.047038
    119 H55         2.3400    3.2720   -4.8120 hc        1 MOL      0.047038
    120 H56         3.5610    2.2090   -4.3090 hc        1 MOL      0.047038
    121 N11         4.1230    2.8910    1.4500 n         1 MOL     -0.378437
    122 C40         4.9690    2.7750    2.6750 c3        1 MOL     -0.314276
    123 C41         6.4810    2.6920    2.2900 c         1 MOL      0.462195
    124 O16         7.2450    2.0090    2.9910 o         1 MOL     -0.451808
    125 C42         4.8510    4.0480    3.5110 c3        1 MOL      0.196313
    126 O17         3.5470    4.1970    3.8780 oh        1 MOL     -0.581445
    127 H57         3.6060    3.7460    1.3640 hn        1 MOL      0.338782
    128 H58         4.5870    1.9730    3.2980 h1        1 MOL      0.220762
    129 H59         5.2040    4.9140    2.9440 h1        1 MOL      0.060372
    130 H60         5.2920    3.8790    4.4950 h1        1 MOL      0.060372
    131 H61         3.4270    3.4910    4.5170 ho        1 MOL      0.423284
    132 N12         6.9200    3.3460    1.1950 n         1 MOL     -0.550727
    133 C43         8.3010    3.2300    0.7060 c3        1 MOL      0.413859
    134 C44         8.8800    1.8020    0.5090 c         1 MOL      0.423297
    135 O18        10.0990    1.6470    0.6900 o         1 MOL     -0.528676
    136 C45         9.3190    4.2620    1.2780 c3        1 MOL     -0.223462
    137 H62         6.2910    3.9000    0.6330 hn        1 MOL      0.316887
    138 H63         8.1810    3.5810   -0.3230 h1        1 MOL     -0.017449
    139 H64         9.7270    3.8760    2.2210 hc        1 MOL      0.062830
    140 H65        10.1270    4.4760    0.5680 hc        1 MOL      0.062830
    141 H66         8.8260    5.2050    1.4830 hc        1 MOL      0.062830
    142 N13         8.1510    0.7010    0.2910 n         1 MOL     -0.556129
    143 C46         8.5510   -0.6870    0.2440 c3        1 MOL      0.574010
    144 C47         7.8060   -1.5490   -0.8260 c         1 MOL      0.416984
    145 O19         6.9240   -0.9910   -1.4590 o         1 MOL     -0.476009
    146 C48         8.4080   -1.2710    1.6320 c3        1 MOL     -0.535018
    147 H67         7.1490    0.7640    0.2170 hn        1 MOL      0.160805
    148 H68         9.5930   -0.7660   -0.0810 h1        1 MOL     -0.031104
    149 H69         7.3740   -1.4850    1.8670 hc        1 MOL      0.142997
    150 H70         8.9400   -2.2140    1.4980 hc        1 MOL      0.142997
    151 H71         8.6970   -0.5610    2.4120 hc        1 MOL      0.142997
    152 N14         8.1250   -2.8770   -0.9500 n         1 MOL     -0.567843
    153 C49         7.5370   -3.6700   -2.0660 c3        1 MOL     -0.154986
    154 C50         7.9380   -3.1340   -3.4980 c         1 MOL      0.412063
    155 O20         7.4180   -3.6010   -4.5390 o         1 MOL     -0.475923
    156 C51         6.0940   -4.0580   -1.8650 c3        1 MOL      0.238677
    157 C52         5.4750   -4.5890   -0.5490 c3        1 MOL     -0.119217
    158 C53         3.9330   -4.7880   -0.6580 c         1 MOL      0.662775
    159 O21         3.2520   -3.7400   -0.4960 o         1 MOL     -0.683697
    160 O22         3.4750   -5.8970   -0.9920 o         1 MOL     -0.683697
    161 H72         8.8240   -3.2890   -0.3570 hn        1 MOL      0.353224
    162 H73         8.0280   -4.6320   -1.8900 h1        1 MOL      0.104781
    163 H74         5.8900   -4.8280   -2.6040 hc        1 MOL     -0.007832
    164 H75         5.4960   -3.2080   -2.1830 hc        1 MOL     -0.007832
    165 H76         5.7200   -3.8680    0.2320 hc        1 MOL     -0.000783
    166 H77         5.8940   -5.5900   -0.4540 hc        1 MOL     -0.000783
    167 N15         8.8770   -2.1430   -3.5430 n         1 MOL     -0.187677
    168 C54         9.0580   -1.2460   -4.6600 c3        1 MOL     -0.276155
    169 H78         9.8030   -0.4920   -4.4020 h1        1 MOL      0.121023
    170 H79         9.4000   -1.8110   -5.5270 h1        1 MOL      0.121023
    171 H80         8.1120   -0.7580   -4.8920 h1        1 MOL      0.121023
    172 H81         9.4100   -1.9490   -2.7050 hn        1 MOL      0.205753
    173 Ca1         1.5210   -1.7700   -0.9560 Ca        1 MOL      1.791693
    174 O23         4.0360   -1.0070   -1.1680 oh        1 MOL     -0.858236
    175 H82         4.8000   -1.4970   -1.4750 ho        1 MOL      0.414613
    176 H83         4.3990   -0.3220   -0.6070 ho        1 MOL      0.414613
    177 O24         1.3890   -0.4420   -3.2680 oh        1 MOL     -0.858236
    178 H84         1.1120   -1.0110   -3.9930 ho        1 MOL      0.414613
    179 H85         1.3730    0.4350   -3.6370 ho        1 MOL      0.414613
    180 O25         1.5790   -3.5050   -3.0900 oh        1 MOL     -0.858236
    181 H86         0.8360   -3.6700   -3.6520 ho        1 MOL      0.414613
    182 H87         2.0590   -4.3390   -3.0670 ho        1 MOL      0.414613
    183 O26         0.3260   -4.1050   -0.3420 oh        1 MOL     -0.858236
    184 H88        -0.4380   -4.6480   -0.5290 ho        1 MOL      0.414613
    185 H89         1.0680   -4.6350   -0.6180 ho        1 MOL      0.414613
@<TRIPOS>BOND
     1    1    2 1   
     2    1    4 1   
     3    1    5 1   
     4    1    6 1   
     5    2    3 2   
     6    2    7 1   
     7    7    8 1   
     8    7   15 1   
     9    8    9 1   
    10    8   11 1   
    11    8   16 1   
    12    9   10 2   
    13    9   19 1   
    14   11   12 1   
    15   11   17 1   
    16   11   18 1   
    17   12   13 1   
    18   12   14 1   
    19   19   20 1   
    20   19   28 1   
    21   20   21 1   
    22   20   23 1   
    23   20   29 1   
    24   21   22 2   
    25   21   41 1   
    26   23   24 1   
    27   23   30 1   
    28   23   31 1   
    29   24   25 1   
    30   24   32 1   
    31   24   33 1   
    32   25   26 1   
    33   25   34 1   
    34   25   35 1   
    35   26   27 1   
    36   26   36 1   
    37   26   37 1   
    38   27   38 1   
    39   27   39 1   
    40   27   40 1   
    41   41   42 1   
    42   41   49 1   
    43   42   43 1   
    44   42   45 1   
    45   42   50 1   
    46   43   44 2   
    47   43   53 1   
    48   45   46 1   
    49   45   51 1   
    50   45   52 1   
    51   46   47 1   
    52   46   48 1   
    53   53   54 1   
    54   53   57 1   
    55   54   55 1   
    56   54   58 1   
    57   54   59 1   
    58   55   56 2   
    59   55   60 1   
    60   60   61 1   
    61   60   68 1   
    62   61   62 1   
    63   61   64 1   
    64   61   69 1   
    65   62   63 2   
    66   62   74 1   
    67   64   65 1   
    68   64   70 1   
    69   64   71 1   
    70   65   66 1   
    71   65   67 2   
    72   66   72 1   
    73   66   73 1   
    74   74   75 1   
    75   74   78 1   
    76   75   76 1   
    77   75   79 1   
    78   75   80 1   
    79   76   77 2   
    80   76   81 1   
    81   81   82 1   
    82   81   93 1   
    83   82   83 1   
    84   82   85 1   
    85   82   94 1   
    86   83   84 2   
    87   83  102 1   
    88   85   86 1   
    89   85   95 1   
    90   85   96 1   
    91   86   87 ar  
    92   86   88 ar  
    93   87   89 ar  
    94   87   97 1   
    95   88   90 ar  
    96   88   98 1   
    97   89   91 ar  
    98   89   99 1   
    99   90   91 ar  
   100   90  100 1   
   101   91   92 1   
   102   92  101 1   
   103  102  103 1   
   104  102  110 1   
   105  103  104 1   
   106  103  106 1   
   107  103  111 1   
   108  104  105 2   
   109  104  121 1   
   110  106  107 1   
   111  106  108 1   
   112  106  112 1   
   113  107  109 1   
   114  107  113 1   
   115  107  114 1   
   116  108  115 1   
   117  108  116 1   
   118  108  117 1   
   119  109  118 1   
   120  109  119 1   
   121  109  120 1   
   122  121  122 1   
   123  121  127 1   
   124  122  123 1   
   125  122  125 1   
   126  122  128 1   
   127  123  124 2   
   128  123  132 1   
   129  125  126 1   
   130  125  129 1   
   131  125  130 1   
   132  126  131 1   
   133  132  133 1   
   134  132  137 1   
   135  133  134 1   
   136  133  136 1   
   137  133  138 1   
   138  134  135 2   
   139  134  142 1   
   140  136  139 1   
   141  136  140 1   
   142  136  141 1   
   143  142  143 1   
   144  142  147 1   
   145  143  144 1   
   146  143  146 1   
   147  143  148 1   
   148  144  145 2   
   149  144  152 1   
   150  146  149 1   
   151  146  150 1   
   152  146  151 1   
   153  152  153 1   
   154  152  161 1   
   155  153  154 1   
   156  153  156 1   
   157  153  162 1   
   158  154  155 2   
   159  154  167 1   
   160  156  157 1   
   161  156  163 1   
   162  156  164 1   
   163  157  158 1   
   164  157  165 1   
   165  157  166 1   
   166  158  159 1   
   167  158  160 1   
   168  167  168 1   
   169  167  172 1   
   170  168  169 1   
   171  168  170 1   
   172  168  171 1   
   173  174  175 1   
   174  174  176 1   
   175  177  178 1   
   176  177  179 1   
   177  180  181 1   
   178  180  182 1   
   179  183  184 1   
   180  183  185 1   
@<TRIPOS>SUBSTRUCTURE
     1 MOL         1 TEMP              0 ****  ****    0 ROOT
