@<TRIPOS>MOLECULE
MOL
  181   177     1     0     0
SMALL
resp


@<TRIPOS>ATOM
      1 C1        -10.9420    6.6210   -1.7040 c3        1 MOL     -0.349144
      2 C2        -11.6600    5.2830   -1.5260 c         1 MOL      0.694303
      3 O1        -12.4590    4.9700   -2.4650 o         1 MOL     -0.586936
      4 H1         -9.9610    6.4500   -2.1470 hc        1 MOL      0.099724
      5 H2        -11.5300    7.2650   -2.3590 hc        1 MOL      0.099724
      6 H3        -10.8230    7.1010   -0.7330 hc        1 MOL      0.099724
      7 N1        -11.4590    4.5000   -0.4100 n         1 MOL     -0.615976
      8 C3        -10.6140    4.8040    0.7750 c3        1 MOL     -0.022817
      9 C4        -11.0940    4.2050    2.0950 c         1 MOL      0.549292
     10 O2        -10.9670    4.7980    3.1770 o         1 MOL     -0.556413
     11 C5         -9.1470    4.4740    0.5290 c3        1 MOL     -0.451918
     12 C6         -8.7700    3.1410   -0.0920 c         1 MOL      0.759622
     13 O3         -8.3410    3.0520   -1.2630 o         1 MOL     -0.655140
     14 O4         -9.0730    2.0940    0.5820 o         1 MOL     -0.655140
     15 H4        -11.8360    3.5690   -0.4970 hn        1 MOL      0.286598
     16 H5        -10.7650    5.8760    0.9410 h1        1 MOL      0.131878
     17 H6         -8.7500    4.6100    1.5370 hc        1 MOL      0.136296
     18 H7         -8.7430    5.2360   -0.1340 hc        1 MOL      0.136296
     19 N2        -11.6100    3.0210    1.9980 n         1 MOL     -0.361265
     20 C7        -12.2380    2.2230    3.0720 c3        1 MOL      0.069357
     21 C8        -11.9110    0.6810    3.0740 c         1 MOL      0.428940
     22 O5        -12.5130   -0.0570    3.9040 o         1 MOL     -0.545467
     23 C9        -13.7640    2.4140    3.1220 c3        1 MOL     -0.132676
     24 H8        -11.6410    2.6980    1.0460 hn        1 MOL      0.325179
     25 H9        -11.7650    2.6400    3.9620 h1        1 MOL      0.098745
     26 H10       -14.3180    1.9080    3.9180 hc        1 MOL      0.046863
     27 H11       -14.0820    3.4460    3.2900 hc        1 MOL      0.046863
     28 H12       -14.2870    2.1370    2.2150 hc        1 MOL      0.046863
     29 N3        -11.0210    0.1990    2.1890 n         1 MOL     -0.240313
     30 C10       -10.7780   -1.2530    2.0940 c3        1 MOL     -0.039493
     31 C11        -9.2520   -1.4490    1.8190 c         1 MOL      0.499933
     32 O6         -8.7080   -1.0620    0.8060 o         1 MOL     -0.510396
     33 C12       -11.5810   -1.9300    0.9410 c3        1 MOL     -0.216175
     34 C13       -11.4590   -1.3400   -0.4680 c         1 MOL      0.848493
     35 O7        -11.9130   -1.9940   -1.4130 o         1 MOL     -0.740246
     36 O8        -10.9600   -0.2130   -0.6480 o         1 MOL     -0.740246
     37 H13       -10.5540    0.6910    1.4410 hn        1 MOL      0.100630
     38 H14       -11.1470   -1.7420    2.9990 h1        1 MOL      0.088608
     39 H15       -12.6170   -1.9090    1.2800 hc        1 MOL      0.067515
     40 H16       -11.3760   -3.0070    0.9560 hc        1 MOL      0.067515
     41 N4         -8.5950   -2.1970    2.7260 n         1 MOL     -0.331128
     42 C14        -7.1600   -2.4240    2.7470 c3        1 MOL     -0.284409
     43 C15        -6.5710   -3.2970    1.5620 c         1 MOL      0.714873
     44 O9         -7.0490   -4.4390    1.2590 o         1 MOL     -0.557990
     45 H17        -9.0790   -2.5220    3.5370 hn        1 MOL      0.281182
     46 H18        -6.8070   -2.9470    3.6360 h1        1 MOL      0.150854
     47 H19        -6.7650   -1.4100    2.7410 h1        1 MOL      0.150854
     48 N5         -5.5770   -2.6760    0.9350 n         1 MOL     -0.751571
     49 C16        -4.7840   -3.2170   -0.1760 c3        1 MOL      0.408898
     50 C17        -3.3010   -3.5120    0.2140 c         1 MOL      0.454857
     51 O10        -2.7560   -2.8590    1.0690 o         1 MOL     -0.467612
     52 C18        -4.8920   -2.2880   -1.4400 c3        1 MOL     -0.089788
     53 C19        -6.1310   -2.3780   -2.2000 c         1 MOL      0.582973
     54 N6         -6.2100   -3.2220   -3.1890 n         1 MOL     -0.716675
     55 O11        -7.0800   -1.6580   -1.7930 o         1 MOL     -0.584481
     56 H20        -5.2910   -1.7570    1.2280 hn        1 MOL      0.325666
     57 H21        -5.2770   -4.1290   -0.4930 h1        1 MOL     -0.026271
     58 H22        -4.0600   -2.5720   -2.0770 hc        1 MOL      0.012706
     59 H23        -4.6400   -1.2880   -1.0730 hc        1 MOL      0.012706
     60 H24        -5.6190   -4.0320   -3.2050 hn        1 MOL      0.351747
     61 H25        -7.0620   -3.1480   -3.7300 hn        1 MOL      0.351747
     62 N7         -2.6950   -4.4670   -0.4620 n         1 MOL     -0.552232
     63 C20        -1.2590   -4.7490   -0.3320 c3        1 MOL      0.000299
     64 C21        -0.4160   -3.7200   -1.1350 c         1 MOL      0.573716
     65 O12        -0.8910   -2.8210   -1.8390 o         1 MOL     -0.542075
     66 H26        -3.2930   -5.0410   -1.0410 hn        1 MOL      0.305731
     67 H27        -1.1460   -5.7510   -0.7400 h1        1 MOL      0.113544
     68 H28        -0.9370   -4.7380    0.7090 h1        1 MOL      0.113544
     69 N8          0.9310   -3.7270   -1.1250 n         1 MOL     -0.349135
     70 C22         1.8550   -4.6110   -0.3900 c3        1 MOL     -0.385479
     71 C23         3.0890   -3.8630    0.1060 c         1 MOL      0.703895
     72 O13         3.8940   -4.3760    0.8230 o         1 MOL     -0.542075
     73 C24         2.3350   -5.8020   -1.1970 c3        1 MOL      0.338317
     74 C25         1.3000   -6.8750   -1.6740 c3        1 MOL     -0.444665
     75 O14         2.9890   -5.3460   -2.3170 oh        1 MOL     -0.570840
     76 H29         1.3930   -3.1540   -1.8240 hn        1 MOL      0.286860
     77 H30         1.3280   -4.9890    0.4910 h1        1 MOL      0.165285
     78 H31         3.1430   -6.3150   -0.6980 h1        1 MOL      0.030778
     79 H32         3.5370   -6.0470   -2.6750 ho        1 MOL      0.407421
     80 H33         1.8550   -7.6090   -2.2590 hc        1 MOL      0.105131
     81 H34         0.7580   -7.1950   -0.7890 hc        1 MOL      0.105131
     82 H35         0.7060   -6.3880   -2.4550 hc        1 MOL      0.105131
     83 N9          3.1650   -2.5730   -0.2600 n         1 MOL     -0.403307
     84 C26         4.3590   -1.7910   -0.2650 c3        1 MOL      0.074932
     85 C27         4.2980   -0.5790    0.6690 c         1 MOL      0.538487
     86 O15         3.2460    0.0510    0.7960 o         1 MOL     -0.580825
     87 C28         4.6800   -1.5410   -1.7190 c3        1 MOL     -0.043574
     88 C29         5.4840   -2.7360   -2.3190 c3        1 MOL      0.056295
     89 C30         5.4260   -0.1920   -1.9400 c3        1 MOL      0.048986
     90 C31         5.6720   -2.7890   -3.8000 c3        1 MOL     -0.477795
     91 H36         2.4080   -2.1270   -0.7410 hn        1 MOL      0.222438
     92 H37         5.1420   -2.3690    0.2170 h1        1 MOL      0.093097
     93 H38         3.7700   -1.4850   -2.3200 hc        1 MOL      0.033786
     94 H39         5.0130   -3.6590   -1.9700 hc        1 MOL      0.015752
     95 H40         6.4580   -2.6990   -1.8280 hc        1 MOL      0.015752
     96 H41         6.3790   -0.1950   -1.4080 hc        1 MOL      0.000010
     97 H42         5.5780    0.1300   -2.9760 hc        1 MOL      0.000010
     98 H43         4.7290    0.5460   -1.5650 hc        1 MOL      0.000010
     99 H44         6.4320   -3.5470   -4.0160 hc        1 MOL      0.117829
    100 H45         4.6550   -2.8630   -4.1570 hc        1 MOL      0.117829
    101 H46         6.0970   -1.8320   -4.1180 hc        1 MOL      0.117829
    102 N10         5.2670   -0.3510    1.5430 n         1 MOL     -0.475117
    103 C32         6.5310   -1.0720    1.6210 c3        1 MOL      0.077038
    104 C33         7.7480   -0.1290    1.7110 c         1 MOL      0.433177
    105 O16         7.5630    1.0230    2.0850 o         1 MOL     -0.496638
    106 C34         6.5320   -2.1070    2.7560 c3        1 MOL      0.114101
    107 C35         5.7880   -1.6950    4.0000 c         1 MOL      0.641105
    108 O17         5.2420   -2.6320    4.6200 o         1 MOL     -0.708343
    109 O18         6.0220   -0.5750    4.5120 o         1 MOL     -0.708343
    110 H47         5.0630    0.3340    2.2600 hn        1 MOL      0.339436
    111 H48         6.6590   -1.7120    0.7400 h1        1 MOL     -0.029198
    112 H49         7.5470   -2.3580    3.0610 hc        1 MOL     -0.064976
    113 H50         6.0990   -3.0270    2.3790 hc        1 MOL     -0.064976
    114 N11         8.8740   -0.6000    1.2490 n         1 MOL     -0.419549
    115 C36        10.1560    0.1050    1.2860 c3        1 MOL      0.194447
    116 C37        11.1030   -0.3680    0.1540 c         1 MOL      0.238814
    117 O19        11.0620   -1.6290   -0.0860 o         1 MOL     -0.526934
    118 C38        10.7840   -0.1600    2.6810 c3        1 MOL     -0.268885
    119 C39        12.0840    0.6110    2.8940 ca        1 MOL      0.066175
    120 C40        13.2670    0.1000    2.4590 ca        1 MOL     -0.183404
    121 C41        12.0500    1.8900    3.4370 ca        1 MOL     -0.183404
    122 C42        14.4730    0.7600    2.6970 ca        1 MOL     -0.051221
    123 C43        13.2490    2.5910    3.6590 ca        1 MOL     -0.051221
    124 C44        14.4780    1.9760    3.2980 ca        1 MOL     -0.197337
    125 H51         8.9230   -1.5700    0.9760 hn        1 MOL      0.277635
    126 H52         9.9810    1.1730    1.1770 h1        1 MOL      0.083620
    127 H53        10.9650   -1.2070    2.9080 hc        1 MOL      0.137929
    128 H54        10.0190    0.0630    3.4330 hc        1 MOL      0.137929
    129 H55        13.2990   -0.8900    2.0240 ha        1 MOL      0.137487
    130 H56        11.1190    2.3210    3.8010 ha        1 MOL      0.137487
    131 H57        15.3850    0.2340    2.4450 ha        1 MOL      0.093257
    132 H58        13.2740    3.6310    3.9480 ha        1 MOL      0.093257
    133 H59        15.4270    2.4850    3.3920 ha        1 MOL      0.107792
    134 N12        11.8930    0.4570   -0.5540 n         1 MOL     -0.065506
    135 C45        12.0510    1.8660   -0.2700 c3        1 MOL      0.182054
    136 C46        10.9820    2.7110   -0.8700 c         1 MOL      0.298450
    137 O20        10.9420    3.9640   -0.7080 o         1 MOL     -0.501631
    138 C47        13.4830    2.2130   -0.6670 c3        1 MOL     -0.033446
    139 C48        13.8970    1.1510   -1.7190 c3        1 MOL     -0.113416
    140 C49        12.8710    0.0360   -1.5680 c3        1 MOL     -0.082026
    141 H60        12.0210    2.1280    0.7870 h1        1 MOL      0.101125
    142 H61        13.6600    3.2650   -0.8880 hc        1 MOL      0.014377
    143 H62        14.0740    2.0150    0.2220 hc        1 MOL      0.014377
    144 H63        13.9140    1.5950   -2.7100 hc        1 MOL      0.043774
    145 H64        14.8310    0.6190   -1.5940 hc        1 MOL      0.043774
    146 H65        12.4810    0.0180   -2.5980 h1        1 MOL      0.073482
    147 H66        13.3140   -0.9020   -1.2400 h1        1 MOL      0.073482
    148 N13         9.9920    2.0890   -1.5040 n         1 MOL     -0.231441
    149 C50         8.8080    2.7670   -2.1400 c3        1 MOL      0.075465
    150 C51         8.4360    2.1860   -3.4950 c         1 MOL      0.458859
    151 O21         8.7510    1.0950   -3.8380 o         1 MOL     -0.589228
    152 C52         7.4970    2.7470   -1.2680 c3        1 MOL     -0.191026
    153 C53         7.4610    3.4820    0.1140 c3        1 MOL     -0.248719
    154 C54         7.8520    4.9230   -0.0160 c         1 MOL      0.744643
    155 O22         8.3010    5.4910    0.9840 o         1 MOL     -0.695159
    156 O23         7.5130    5.6500   -0.9810 o         1 MOL     -0.695159
    157 H67        10.0350    1.0940   -1.7020 hn        1 MOL      0.213636
    158 H68         9.0360    3.8090   -2.3690 h1        1 MOL      0.099487
    159 H69         7.3380    1.7090   -0.9550 hc        1 MOL      0.070514
    160 H70         6.6200    2.9820   -1.8590 hc        1 MOL      0.070514
    161 H71         8.2230    3.0170    0.7450 hc        1 MOL      0.099238
    162 H72         6.4330    3.4460    0.4630 hc        1 MOL      0.099238
    163 N14         7.7130    2.8290   -4.3700 n         1 MOL     -0.333771
    164 C55         7.3470    4.2750   -4.4300 c3        1 MOL     -0.149976
    165 H73         6.6080    4.4940   -3.6600 h1        1 MOL      0.075927
    166 H74         8.2360    4.8820   -4.2620 h1        1 MOL      0.075927
    167 H75         6.9290    4.5040   -5.4100 h1        1 MOL      0.075927
    168 H76         7.5250    2.3830   -5.2510 hn        1 MOL      0.265727
    169 Ca1        -8.6110    0.4020   -1.4190 Ca        1 MOL      1.706617
    170 O24       -10.6740    1.4680   -3.0510 oh        1 MOL     -0.857280
    171 H77       -11.6300    1.5130   -3.0850 ho        1 MOL      0.410963
    172 H78       -10.3850    2.3030   -3.4050 ho        1 MOL      0.410963
    173 O25        -5.9440    1.0790   -0.6730 oh        1 MOL     -0.857280
    174 H79        -5.5090    0.5740    0.0120 ho        1 MOL      0.410963
    175 H80        -5.4270    0.9040   -1.4620 ho        1 MOL      0.410963
    176 O26        -6.9510    0.8670   -3.5140 oh        1 MOL     -0.857280
    177 H81        -6.6610    0.2350   -4.1760 ho        1 MOL      0.410963
    178 H82        -6.7240    1.7240   -3.8840 ho        1 MOL      0.410963
    179 O27        -9.7390   -1.6280   -2.9940 oh        1 MOL     -0.857280
    180 H83       -10.1890   -1.4260   -3.8200 ho        1 MOL      0.410963
    181 H84       -10.4480   -1.9220   -2.4130 ho        1 MOL      0.410963
@<TRIPOS>BOND
     1    1    2 1   
     2    1    4 1   
     3    1    5 1   
     4    1    6 1   
     5    2    3 2   
     6    2    7 1   
     7    7    8 1   
     8    7   15 1   
     9    8    9 1   
    10    8   11 1   
    11    8   16 1   
    12    9   10 2   
    13    9   19 1   
    14   11   12 1   
    15   11   17 1   
    16   11   18 1   
    17   12   13 1   
    18   12   14 1   
    19   19   20 1   
    20   19   24 1   
    21   20   21 1   
    22   20   23 1   
    23   20   25 1   
    24   21   22 2   
    25   21   29 1   
    26   23   26 1   
    27   23   27 1   
    28   23   28 1   
    29   29   30 1   
    30   29   37 1   
    31   30   31 1   
    32   30   33 1   
    33   30   38 1   
    34   31   32 2   
    35   31   41 1   
    36   33   34 1   
    37   33   39 1   
    38   33   40 1   
    39   34   35 1   
    40   34   36 1   
    41   41   42 1   
    42   41   45 1   
    43   42   43 1   
    44   42   46 1   
    45   42   47 1   
    46   43   44 2   
    47   43   48 1   
    48   48   49 1   
    49   48   56 1   
    50   49   50 1   
    51   49   52 1   
    52   49   57 1   
    53   50   51 2   
    54   50   62 1   
    55   52   53 1   
    56   52   58 1   
    57   52   59 1   
    58   53   54 1   
    59   53   55 2   
    60   54   60 1   
    61   54   61 1   
    62   62   63 1   
    63   62   66 1   
    64   63   64 1   
    65   63   67 1   
    66   63   68 1   
    67   64   65 2   
    68   64   69 1   
    69   69   70 1   
    70   69   76 1   
    71   70   71 1   
    72   70   73 1   
    73   70   77 1   
    74   71   72 2   
    75   71   83 1   
    76   73   74 1   
    77   73   75 1   
    78   73   78 1   
    79   74   80 1   
    80   74   81 1   
    81   74   82 1   
    82   75   79 1   
    83   83   84 1   
    84   83   91 1   
    85   84   85 1   
    86   84   87 1   
    87   84   92 1   
    88   85   86 2   
    89   85  102 1   
    90   87   88 1   
    91   87   89 1   
    92   87   93 1   
    93   88   90 1   
    94   88   94 1   
    95   88   95 1   
    96   89   96 1   
    97   89   97 1   
    98   89   98 1   
    99   90   99 1   
   100   90  100 1   
   101   90  101 1   
   102  102  103 1   
   103  102  110 1   
   104  103  104 1   
   105  103  106 1   
   106  103  111 1   
   107  104  105 2   
   108  104  114 1   
   109  106  107 1   
   110  106  112 1   
   111  106  113 1   
   112  107  108 1   
   113  107  109 1   
   114  114  115 1   
   115  114  125 1   
   116  115  116 1   
   117  115  118 1   
   118  115  126 1   
   119  116  117 2   
   120  116  134 1   
   121  118  119 1   
   122  118  127 1   
   123  118  128 1   
   124  119  120 ar  
   125  119  121 ar  
   126  120  122 ar  
   127  120  129 1   
   128  121  123 ar  
   129  121  130 1   
   130  122  124 ar  
   131  122  131 1   
   132  123  124 ar  
   133  123  132 1   
   134  124  133 1   
   135  134  135 1   
   136  134  140 1   
   137  135  136 1   
   138  135  138 1   
   139  135  141 1   
   140  136  137 2   
   141  136  148 1   
   142  138  139 1   
   143  138  142 1   
   144  138  143 1   
   145  139  140 1   
   146  139  144 1   
   147  139  145 1   
   148  140  146 1   
   149  140  147 1   
   150  148  149 1   
   151  148  157 1   
   152  149  150 1   
   153  149  152 1   
   154  149  158 1   
   155  150  151 2   
   156  150  163 1   
   157  152  153 1   
   158  152  159 1   
   159  152  160 1   
   160  153  154 1   
   161  153  161 1   
   162  153  162 1   
   163  154  155 1   
   164  154  156 1   
   165  163  164 1   
   166  163  168 1   
   167  164  165 1   
   168  164  166 1   
   169  164  167 1   
   170  170  171 1   
   171  170  172 1   
   172  173  174 1   
   173  173  175 1   
   174  176  177 1   
   175  176  178 1   
   176  179  180 1   
   177  179  181 1   
@<TRIPOS>SUBSTRUCTURE
     1 MOL         1 TEMP              0 ****  ****    0 ROOT
