@<TRIPOS>MOLECULE
MOL
  186   183     1     0     0
SMALL
resp


@<TRIPOS>ATOM
      1 C1        -11.8380    4.7020    4.3460 c3        1 MOL     -0.315413
      2 C2        -11.9110    3.7700    3.0990 c         1 MOL      0.533850
      3 O1        -12.6400    2.7160    3.1930 o         1 MOL     -0.548077
      4 H1        -10.8910    5.2410    4.3410 hc        1 MOL      0.087458
      5 H2        -12.6620    5.4160    4.3150 hc        1 MOL      0.087458
      6 H3        -11.9100    4.1030    5.2540 hc        1 MOL      0.087458
      7 N1        -11.2210    4.1290    1.9790 n         1 MOL     -0.180759
      8 C3        -11.1040    3.4260    0.7030 c3        1 MOL     -0.622663
      9 C4        -10.2690    2.1640    0.7410 c         1 MOL      0.737848
     10 O2         -9.3010    2.1370    1.5360 o         1 MOL     -0.545536
     11 C5        -10.7570    4.4730   -0.4040 c3        1 MOL      0.316943
     12 C6         -9.5980    5.4190   -0.0410 c         1 MOL      0.672730
     13 O3         -9.1230    5.4930    1.1210 o         1 MOL     -0.742160
     14 O4         -9.2230    6.2180   -0.9130 o         1 MOL     -0.742160
     15 H4        -10.5340    4.8600    2.0310 hn        1 MOL      0.185958
     16 H5        -12.0870    3.0310    0.4380 h1        1 MOL      0.160238
     17 H6        -11.6510    5.0630   -0.5820 hc        1 MOL     -0.004304
     18 H7        -10.6050    3.8650   -1.2890 hc        1 MOL     -0.004304
     19 N2        -10.6410    1.0620   -0.0020 n         1 MOL     -0.513151
     20 C7        -10.0140   -0.3460    0.1380 c3        1 MOL     -0.075559
     21 C8         -8.6170   -0.5290   -0.4280 c         1 MOL      0.250280
     22 O5         -8.1480   -1.6840   -0.6680 o         1 MOL     -0.460725
     23 C9        -11.0730   -1.3830   -0.3860 c3        1 MOL     -0.296517
     24 C10       -11.4800   -1.1990   -1.8180 c3        1 MOL      0.249378
     25 C11       -12.5700   -2.1180   -2.3520 c3        1 MOL     -0.189237
     26 C12       -12.0490   -3.5080   -2.6150 c3        1 MOL     -0.023790
     27 N3        -11.2160   -3.5100   -3.8990 n4        1 MOL     -0.258527
     28 H8        -11.4210    1.1100   -0.6440 hn        1 MOL      0.346557
     29 H9         -9.9220   -0.5710    1.1980 h1        1 MOL      0.177301
     30 H10       -11.9970   -1.2270    0.1640 hc        1 MOL      0.118923
     31 H11       -10.6420   -2.3820   -0.3200 hc        1 MOL      0.118923
     32 H12       -10.5940   -1.2950   -2.4410 hc        1 MOL     -0.032643
     33 H13       -11.8500   -0.1880   -1.9300 hc        1 MOL     -0.032643
     34 H14       -13.0120   -1.5970   -3.2070 hc        1 MOL      0.073027
     35 H15       -13.3350   -2.2430   -1.5780 hc        1 MOL      0.073027
     36 H16       -12.9000   -4.1800   -2.7500 hx        1 MOL      0.111989
     37 H17       -11.4890   -3.8140   -1.7400 hx        1 MOL      0.111989
     38 H18       -10.3010   -3.1120   -3.7770 hn        1 MOL      0.299089
     39 H19       -11.1770   -4.3750   -4.4060 hn        1 MOL      0.299089
     40 H20       -11.6490   -2.9010   -4.5820 hn        1 MOL      0.299089
     41 N4         -7.9060    0.5650   -0.5770 n         1 MOL      0.377412
     42 C13        -6.6290    0.7850   -1.2680 c3        1 MOL     -0.553156
     43 C14        -5.6380    1.4300   -0.1810 c         1 MOL      0.271920
     44 O6         -6.1510    2.1890    0.6350 o         1 MOL     -0.562574
     45 C15        -6.8190    1.6900   -2.5460 c3        1 MOL     -0.222381
     46 C16        -7.6710    2.9630   -2.3030 c         1 MOL      0.424802
     47 O7         -8.2210    3.3020   -3.3750 o         1 MOL     -0.553797
     48 O8         -7.5860    3.6040   -1.2140 o         1 MOL     -0.553797
     49 H21        -8.2270    1.3420   -0.0080 hn        1 MOL      0.040736
     50 H22        -6.1580   -0.1110   -1.6750 h1        1 MOL      0.277520
     51 H23        -7.1320    1.1110   -3.4160 hc        1 MOL      0.134017
     52 H24        -5.7930    2.0140   -2.7310 hc        1 MOL      0.134017
     53 N5         -4.3980    0.9610   -0.0670 n         1 MOL     -0.059027
     54 C17        -3.7690   -0.1760   -0.8020 c3        1 MOL     -0.316888
     55 C18        -4.1540   -1.5740   -0.4090 c         1 MOL      0.777549
     56 O9         -4.6320   -1.8060    0.7250 o         1 MOL     -0.572187
     57 H25        -3.8230    1.5700    0.4940 hn        1 MOL      0.196912
     58 H26        -2.6940   -0.0200   -0.7040 h1        1 MOL      0.131586
     59 H27        -4.0380   -0.0300   -1.8510 h1        1 MOL      0.131586
     60 N6         -3.9230   -2.5210   -1.3110 n         1 MOL     -0.818965
     61 C19        -4.2190   -3.9360   -0.9660 c3        1 MOL      0.443338
     62 C20        -2.9610   -4.8610   -1.1460 c         1 MOL      0.636488
     63 O10        -2.0390   -4.5210   -1.9120 o         1 MOL     -0.530894
     64 C21        -5.4360   -4.4910   -1.8420 c3        1 MOL     -0.487480
     65 C22        -5.4340   -4.0980   -3.3330 c         1 MOL      0.853843
     66 O11        -4.5400   -3.4590   -3.8380 o         1 MOL     -0.740245
     67 O12        -6.3870   -4.4510   -4.0890 o         1 MOL     -0.740245
     68 H28        -3.5650   -2.3350   -2.2340 hn        1 MOL      0.416382
     69 H29        -4.3800   -4.0090    0.1110 h1        1 MOL     -0.042707
     70 H30        -6.3650   -4.1270   -1.3920 hc        1 MOL      0.065123
     71 H31        -5.4250   -5.5810   -1.8030 hc        1 MOL      0.065123
     72 N7         -2.8950   -6.0030   -0.4370 n         1 MOL     -0.479601
     73 C23        -1.7530   -6.9470   -0.5330 c3        1 MOL     -0.075841
     74 C24        -0.5910   -6.5970    0.4040 c         1 MOL      0.609163
     75 O13         0.2410   -7.4120    0.6330 o         1 MOL     -0.592046
     76 H32        -3.5450   -6.2460    0.2880 hn        1 MOL      0.284414
     77 H33        -1.3890   -6.8160   -1.5580 h1        1 MOL      0.087422
     78 H34        -1.9610   -7.9970   -0.3140 h1        1 MOL      0.087422
     79 N8         -0.4930   -5.3850    0.8660 n         1 MOL     -0.316891
     80 C25         0.6410   -4.8700    1.6290 c3        1 MOL      0.008633
     81 C26         1.1160   -3.5160    1.1510 c         1 MOL      0.612457
     82 O14         0.3220   -2.7610    0.6310 o         1 MOL     -0.508201
     83 C27         0.3030   -4.6420    3.1300 c3        1 MOL      0.228565
     84 C28        -0.9170   -3.6950    3.3810 c3        1 MOL     -0.089648
     85 O15        -0.0080   -5.9270    3.6900 oh        1 MOL     -0.599934
     86 H35        -1.1520   -4.6570    0.6080 hn        1 MOL      0.144425
     87 H36         1.5350   -5.4920    1.5800 h1        1 MOL      0.052113
     88 H37         1.1820   -4.2250    3.6140 h1        1 MOL     -0.016587
     89 H38         0.7770   -6.4790    3.5930 ho        1 MOL      0.386906
     90 H39        -0.6900   -2.6650    3.1220 hc        1 MOL      0.039506
     91 H40        -1.8300   -4.0030    2.8600 hc        1 MOL      0.039506
     92 H41        -1.1050   -3.6630    4.4510 hc        1 MOL      0.039506
     93 N9          2.3910   -3.1470    1.3130 n         1 MOL     -0.572414
     94 C29         2.8140   -1.7700    1.1670 c3        1 MOL     -0.039016
     95 C30         4.1570   -1.6540    0.4720 c         1 MOL      0.709828
     96 O16         4.3570   -0.5130    0.0330 o         1 MOL     -0.555340
     97 C31         2.8080   -0.9180    2.4540 c3        1 MOL      0.174682
     98 C32         1.7440   -1.3730    3.5650 c3        1 MOL      0.018620
     99 C33         2.4790    0.6180    2.4090 c3        1 MOL     -0.365505
    100 C34         2.0500   -0.8280    4.9580 c3        1 MOL     -0.255363
    101 H42         3.0530   -3.8160    1.6720 hn        1 MOL      0.269273
    102 H43         2.1150   -1.3270    0.4650 h1        1 MOL      0.097397
    103 H44         3.8240   -1.0550    2.8240 hc        1 MOL     -0.011929
    104 H45         1.9590   -2.4380    3.6730 hc        1 MOL      0.042779
    105 H46         0.7180   -1.0700    3.3680 hc        1 MOL      0.042779
    106 H47         2.7650    1.1280    3.3320 hc        1 MOL      0.097181
    107 H48         2.9750    1.0620    1.5580 hc        1 MOL      0.097181
    108 H49         1.3930    0.6560    2.3350 hc        1 MOL      0.097181
    109 H50         2.9870   -1.1400    5.4120 hc        1 MOL      0.059519
    110 H51         1.9510    0.2590    5.0030 hc        1 MOL      0.059519
    111 H52         1.2510   -1.2180    5.5780 hc        1 MOL      0.059519
    112 N10         5.1020   -2.6870    0.5630 n         1 MOL     -0.607931
    113 C35         6.4170   -2.7320   -0.1630 c3        1 MOL     -0.079330
    114 C36         7.5400   -2.6070    0.8300 c         1 MOL      0.767727
    115 O17         7.4210   -3.1910    1.8570 o         1 MOL     -0.541807
    116 C37         6.4340   -3.9430   -1.1050 c3        1 MOL      0.287177
    117 C38         6.0060   -5.1820   -0.3100 c3        1 MOL     -0.167354
    118 O18         5.4720   -3.7280   -2.0830 oh        1 MOL     -0.558122
    119 H53         4.9190   -3.4590    1.1930 hn        1 MOL      0.326245
    120 H54         6.5410   -1.8280   -0.7740 h1        1 MOL      0.072895
    121 H55         7.4560   -4.0150   -1.4520 h1        1 MOL     -0.027742
    122 H56         5.7280   -2.9300   -2.5570 ho        1 MOL      0.391004
    123 H57         6.3390   -6.1100   -0.7750 hc        1 MOL      0.060018
    124 H58         6.4200   -5.1730    0.7070 hc        1 MOL      0.060018
    125 H59         4.9470   -5.3710   -0.1840 hc        1 MOL      0.060018
    126 N11         8.6220   -1.9010    0.4800 n         1 MOL     -0.692332
    127 C39         9.8820   -1.8910    1.3230 c3        1 MOL     -0.053627
    128 C40        10.4840   -0.5280    1.4680 c         1 MOL      0.816625
    129 O19        10.6880   -0.1290    2.6030 o         1 MOL     -0.600025
    130 C41        10.8070   -3.0880    0.9470 c3        1 MOL      0.276376
    131 C42        12.0030   -3.0740    1.8470 c3        1 MOL     -0.419056
    132 O20        11.2350   -2.8440   -0.3420 oh        1 MOL     -0.596203
    133 H60         8.6230   -1.4930   -0.4520 hn        1 MOL      0.316920
    134 H61         9.4590   -2.0650    2.3080 h1        1 MOL      0.091662
    135 H62        10.2370   -4.0050    1.0650 h1        1 MOL      0.047231
    136 H63        10.7110   -3.3640   -0.9640 ho        1 MOL      0.389410
    137 H64        12.5640   -3.9990    1.7370 hc        1 MOL      0.118685
    138 H65        12.6000   -2.2090    1.5640 hc        1 MOL      0.118685
    139 H66        11.8620   -2.8930    2.9120 hc        1 MOL      0.118685
    140 N12        10.5570    0.2590    0.3990 n         1 MOL     -0.479153
    141 C43        11.0440    1.7090    0.4250 c3        1 MOL     -0.130663
    142 C44        10.2460    2.6080   -0.5090 c         1 MOL      0.533745
    143 O21         9.8480    2.1300   -1.6160 o         1 MOL     -0.548332
    144 C45        12.5760    1.8210    0.2090 c3        1 MOL     -0.140182
    145 C46        12.9910    1.3930   -1.1870 c3        1 MOL     -0.001013
    146 C47        14.4890    0.9890   -1.3030 c3        1 MOL      0.061107
    147 C48        14.8720    0.6500   -2.7600 c3        1 MOL      0.091567
    148 N13        16.3230    0.4110   -2.9740 n4        1 MOL     -0.232628
    149 H67        10.2570   -0.1560   -0.4690 hn        1 MOL      0.287886
    150 H68        10.7460    2.0190    1.4300 h1        1 MOL      0.126988
    151 H69        12.9850    1.2470    1.0460 hc        1 MOL      0.075829
    152 H70        12.8360    2.8630    0.4030 hc        1 MOL      0.075829
    153 H71        12.7600    2.2310   -1.8320 hc        1 MOL      0.044888
    154 H72        12.4690    0.4540   -1.4230 hc        1 MOL      0.044888
    155 H73        14.5910    0.0960   -0.6950 hc        1 MOL     -0.006722
    156 H74        15.1300    1.7500   -0.8700 hc        1 MOL     -0.006722
    157 H75        14.4030    1.3740   -3.4290 hx        1 MOL      0.045004
    158 H76        14.3320   -0.2770   -2.9610 hx        1 MOL      0.045004
    159 H77        16.6580   -0.3010   -2.3400 hn        1 MOL      0.232431
    160 H78        16.4120   -0.0370   -3.8710 hn        1 MOL      0.232431
    161 H79        16.8870    1.2570   -2.9290 hn        1 MOL      0.232431
    162 N14         9.8410    3.7990   -0.0930 n         1 MOL     -0.491466
    163 C49         8.9970    4.6900   -1.0650 c3        1 MOL      0.351349
    164 C50         7.5080    4.2780   -1.3260 c         1 MOL      0.303654
    165 O22         7.1250    4.1940   -2.5090 o         1 MOL     -0.525223
    166 C51         9.0680    6.1700   -0.5690 c3        1 MOL     -0.143802
    167 C52         8.4700    7.1840   -1.5720 c3        1 MOL     -0.065416
    168 C53         8.8100    8.6010   -1.1210 c         1 MOL      0.633770
    169 O23         7.8590    9.3300   -0.6450 o         1 MOL     -0.633967
    170 O24         9.9760    9.1000   -1.3950 o         1 MOL     -0.633967
    171 H80        10.0470    4.0220    0.8650 hn        1 MOL      0.286016
    172 H81         9.4800    4.6700   -2.0420 h1        1 MOL      0.039251
    173 H82        10.1460    6.3210   -0.5210 hc        1 MOL      0.021069
    174 H83         8.6470    6.3700    0.4150 hc        1 MOL      0.021069
    175 H84         7.3820    7.0980   -1.6530 hc        1 MOL      0.028095
    176 H85         8.8380    7.0150   -2.5820 hc        1 MOL      0.028095
    177 N15         6.7460    3.9560   -0.3290 n         1 MOL     -0.249616
    178 C54         6.9740    4.2750    1.0730 c3        1 MOL     -0.143704
    179 H86         8.0440    4.3780    1.2520 h1        1 MOL      0.082537
    180 H87         6.4740    5.2110    1.3180 h1        1 MOL      0.082537
    181 H88         6.5760    3.4750    1.6970 h1        1 MOL      0.082537
    182 H89         5.8640    3.5170   -0.5540 hn        1 MOL      0.286466
    183 Ca1        -6.5620    4.7830    0.8730 Ca        1 MOL      1.714701
    184 O25        -7.6090    3.5610    3.0000 oh        1 MOL     -0.981913
    185 H90        -8.2400    3.1280    2.4220 ho        1 MOL      0.472920
    186 H91        -7.9260    3.3900    3.8850 ho        1 MOL      0.472920
@<TRIPOS>BOND
     1    1    2 1   
     2    1    4 1   
     3    1    5 1   
     4    1    6 1   
     5    2    3 2   
     6    2    7 1   
     7    7    8 1   
     8    7   15 1   
     9    8    9 1   
    10    8   11 1   
    11    8   16 1   
    12    9   10 2   
    13    9   19 1   
    14   11   12 1   
    15   11   17 1   
    16   11   18 1   
    17   12   13 1   
    18   12   14 1   
    19   19   20 1   
    20   19   28 1   
    21   20   21 1   
    22   20   23 1   
    23   20   29 1   
    24   21   22 2   
    25   21   41 1   
    26   23   24 1   
    27   23   30 1   
    28   23   31 1   
    29   24   25 1   
    30   24   32 1   
    31   24   33 1   
    32   25   26 1   
    33   25   34 1   
    34   25   35 1   
    35   26   27 1   
    36   26   36 1   
    37   26   37 1   
    38   27   38 1   
    39   27   39 1   
    40   27   40 1   
    41   41   42 1   
    42   41   49 1   
    43   42   43 1   
    44   42   45 1   
    45   42   50 1   
    46   43   44 2   
    47   43   53 1   
    48   45   46 1   
    49   45   51 1   
    50   45   52 1   
    51   46   47 1   
    52   46   48 1   
    53   53   54 1   
    54   53   57 1   
    55   54   55 1   
    56   54   58 1   
    57   54   59 1   
    58   55   56 2   
    59   55   60 1   
    60   60   61 1   
    61   60   68 1   
    62   61   62 1   
    63   61   64 1   
    64   61   69 1   
    65   62   63 2   
    66   62   72 1   
    67   64   65 1   
    68   64   70 1   
    69   64   71 1   
    70   65   66 1   
    71   65   67 1   
    72   72   73 1   
    73   72   76 1   
    74   73   74 1   
    75   73   77 1   
    76   73   78 1   
    77   74   75 2   
    78   74   79 1   
    79   79   80 1   
    80   79   86 1   
    81   80   81 1   
    82   80   83 1   
    83   80   87 1   
    84   81   82 2   
    85   81   93 1   
    86   83   84 1   
    87   83   85 1   
    88   83   88 1   
    89   84   90 1   
    90   84   91 1   
    91   84   92 1   
    92   85   89 1   
    93   93   94 1   
    94   93  101 1   
    95   94   95 1   
    96   94   97 1   
    97   94  102 1   
    98   95   96 2   
    99   95  112 1   
   100   97   98 1   
   101   97   99 1   
   102   97  103 1   
   103   98  100 1   
   104   98  104 1   
   105   98  105 1   
   106   99  106 1   
   107   99  107 1   
   108   99  108 1   
   109  100  109 1   
   110  100  110 1   
   111  100  111 1   
   112  112  113 1   
   113  112  119 1   
   114  113  114 1   
   115  113  116 1   
   116  113  120 1   
   117  114  115 2   
   118  114  126 1   
   119  116  117 1   
   120  116  118 1   
   121  116  121 1   
   122  117  123 1   
   123  117  124 1   
   124  117  125 1   
   125  118  122 1   
   126  126  127 1   
   127  126  133 1   
   128  127  128 1   
   129  127  130 1   
   130  127  134 1   
   131  128  129 2   
   132  128  140 1   
   133  130  131 1   
   134  130  132 1   
   135  130  135 1   
   136  131  137 1   
   137  131  138 1   
   138  131  139 1   
   139  132  136 1   
   140  140  141 1   
   141  140  149 1   
   142  141  142 1   
   143  141  144 1   
   144  141  150 1   
   145  142  143 2   
   146  142  162 1   
   147  144  145 1   
   148  144  151 1   
   149  144  152 1   
   150  145  146 1   
   151  145  153 1   
   152  145  154 1   
   153  146  147 1   
   154  146  155 1   
   155  146  156 1   
   156  147  148 1   
   157  147  157 1   
   158  147  158 1   
   159  148  159 1   
   160  148  160 1   
   161  148  161 1   
   162  162  163 1   
   163  162  171 1   
   164  163  164 1   
   165  163  166 1   
   166  163  172 1   
   167  164  165 2   
   168  164  177 1   
   169  166  167 1   
   170  166  173 1   
   171  166  174 1   
   172  167  168 1   
   173  167  175 1   
   174  167  176 1   
   175  168  169 1   
   176  168  170 1   
   177  177  178 1   
   178  177  182 1   
   179  178  179 1   
   180  178  180 1   
   181  178  181 1   
   182  184  185 1   
   183  184  186 1   
@<TRIPOS>SUBSTRUCTURE
     1 MOL         1 TEMP              0 ****  ****    0 ROOT
