@<TRIPOS>MOLECULE
MOL
  195   189     1     0     0
SMALL
resp


@<TRIPOS>ATOM
      1 C1          1.0330    7.3160    3.8960 c3        1 MOL     -0.402700
      2 C2          0.0290    7.0040    2.7800 c         1 MOL      0.769753
      3 O1         -1.0860    7.5480    2.7420 o         1 MOL     -0.593700
      4 H1          1.3880    6.3830    4.3350 hc        1 MOL      0.104498
      5 H2          1.8780    7.8660    3.4820 hc        1 MOL      0.104498
      6 H3          0.5490    7.9180    4.6640 hc        1 MOL      0.104498
      7 N1          0.4060    6.0900    1.8170 n         1 MOL     -0.736129
      8 C3         -0.3060    5.9430    0.5890 c3        1 MOL      0.302437
      9 C4         -0.4760    4.4290    0.3090 c         1 MOL      0.562749
     10 O2          0.0490    3.6790    1.0760 o         1 MOL     -0.520899
     11 C5          0.4340    6.6140   -0.6070 c3        1 MOL     -0.343459
     12 C6          1.8740    6.2720   -0.9090 c         1 MOL      0.767301
     13 O3          2.1310    5.1120   -1.4080 o         1 MOL     -0.669023
     14 O4          2.7840    7.0530   -0.7190 o         1 MOL     -0.669023
     15 H4          1.3760    5.8300    1.7580 hn        1 MOL      0.343861
     16 H5         -1.2960    6.3970    0.6190 h1        1 MOL      0.024982
     17 H6          0.3970    7.6770   -0.3610 hc        1 MOL      0.070848
     18 H7         -0.1610    6.4850   -1.5020 hc        1 MOL      0.070848
     19 N2         -1.2120    3.9490   -0.6820 n         1 MOL     -0.748319
     20 C7         -1.6840    2.6350   -0.9150 c3        1 MOL      0.401911
     21 C8         -1.4330    2.1640   -2.3740 c         1 MOL      0.448239
     22 O5         -2.0600    2.8220   -3.2420 o         1 MOL     -0.537434
     23 C9         -3.1540    2.3820   -0.5830 c3        1 MOL     -0.383067
     24 C10        -3.5920    2.6280    0.9270 c3        1 MOL      0.189603
     25 C11        -5.0830    2.6020    1.1200 c3        1 MOL     -0.051160
     26 C12        -5.8360    3.8430    0.5430 c3        1 MOL      0.030255
     27 N3         -7.2490    3.9730    0.8420 n4        1 MOL     -0.251343
     28 H8         -1.6370    4.6070   -1.3210 hn        1 MOL      0.331208
     29 H9         -1.0610    1.9460   -0.3500 h1        1 MOL      0.090722
     30 H10        -3.3030    1.3410   -0.8530 hc        1 MOL      0.080052
     31 H11        -3.6870    3.0990   -1.2050 hc        1 MOL      0.080052
     32 H12        -3.2690    3.6410    1.1740 hc        1 MOL     -0.014849
     33 H13        -3.1030    1.9380    1.6060 hc        1 MOL     -0.014849
     34 H14        -5.1940    2.4640    2.1930 hc        1 MOL     -0.005177
     35 H15        -5.4650    1.7500    0.5450 hc        1 MOL     -0.005177
     36 H16        -5.6780    3.9140   -0.5270 hx        1 MOL      0.082748
     37 H17        -5.3690    4.6740    1.0800 hx        1 MOL      0.082748
     38 H18        -7.6410    4.8530    0.5460 hn        1 MOL      0.300247
     39 H19        -7.7500    3.2190    0.3860 hn        1 MOL      0.300247
     40 H20        -7.4510    3.8500    1.8230 hn        1 MOL      0.300247
     41 N4         -0.6380    1.1490   -2.7180 n         1 MOL     -0.380870
     42 C13        -0.6110    0.4890   -4.0100 c3        1 MOL      0.030980
     43 C14        -0.2460   -0.9910   -3.8030 c         1 MOL      0.688011
     44 O6          0.6970   -1.3310   -3.1540 o         1 MOL     -0.560956
     45 C15         0.4690    1.1760   -4.9130 c3        1 MOL     -0.294217
     46 C16         1.8480    1.4470   -4.2640 c         1 MOL      0.839044
     47 O7          2.7340    0.6660   -4.5320 o         1 MOL     -0.732046
     48 O8          2.0300    2.4630   -3.5300 o         1 MOL     -0.732046
     49 H21        -0.1200    0.6500   -1.9980 hn        1 MOL      0.233849
     50 H22        -1.5340    0.5880   -4.5860 h1        1 MOL      0.117023
     51 H23        -0.0330    2.1270   -5.1040 hc        1 MOL      0.069588
     52 H24         0.5650    0.6530   -5.8670 hc        1 MOL      0.069588
     53 N5         -0.9850   -1.9100   -4.4660 n         1 MOL     -0.620250
     54 C17        -2.4210   -1.7880   -4.8700 c3        1 MOL      0.088650
     55 C18        -3.4250   -1.4340   -3.7640 c         1 MOL      0.472909
     56 O9         -3.0280   -1.1090   -2.6480 o         1 MOL     -0.489629
     57 H25        -0.5970   -2.8370   -4.4710 hn        1 MOL      0.329030
     58 H26        -2.7390   -2.7300   -5.3210 h1        1 MOL      0.054674
     59 H27        -2.5260   -1.0610   -5.6660 h1        1 MOL      0.054674
     60 N6         -4.6870   -1.2610   -4.1590 n         1 MOL     -0.362693
     61 C19        -5.6410   -0.6340   -3.2150 c3        1 MOL     -0.142158
     62 C20        -6.1550   -1.4990   -2.0840 c         1 MOL      0.443838
     63 O10        -6.8060   -0.9590   -1.2170 o         1 MOL     -0.440895
     64 C21        -6.7610    0.1640   -3.8630 c3        1 MOL     -0.050225
     65 C22        -7.5770   -0.5840   -4.8680 c         1 MOL      0.683900
     66 O11        -8.5630   -1.2620   -4.5060 o         1 MOL     -0.661606
     67 O12        -7.4030   -0.3890   -6.1390 o         1 MOL     -0.661606
     68 H28        -5.0740   -1.4870   -5.0640 hn        1 MOL      0.234152
     69 H29        -5.0220    0.1280   -2.7540 h1        1 MOL      0.137606
     70 H30        -6.4320    1.0940   -4.3280 hc        1 MOL      0.025383
     71 H31        -7.4160    0.4580   -3.0350 hc        1 MOL      0.025383
     72 N7         -5.8780   -2.8280   -2.0330 n         1 MOL     -0.303977
     73 C23        -6.4150   -3.8300   -1.0980 c3        1 MOL     -0.164592
     74 C24        -6.0810   -3.7390    0.4100 c         1 MOL      0.450881
     75 O13        -5.7900   -4.8280    1.0130 o         1 MOL     -0.556481
     76 H32        -5.0620   -3.1900   -2.4990 hn        1 MOL      0.254695
     77 H33        -6.1050   -4.8080   -1.4500 h1        1 MOL      0.130224
     78 H34        -7.4950   -3.7170   -1.2010 h1        1 MOL      0.130224
     79 N8         -5.9290   -2.5460    0.9800 n         1 MOL     -0.170107
     80 C25        -5.6210   -2.4260    2.3930 c3        1 MOL     -0.002100
     81 C26        -4.5760   -1.3540    2.7380 c         1 MOL      0.262927
     82 O14        -4.4410   -0.3690    2.0610 o         1 MOL     -0.344069
     83 C27        -6.8980   -2.1350    3.1670 c3        1 MOL      0.315289
     84 C28        -7.6510   -0.8870    2.6860 c3        1 MOL     -0.202053
     85 O15        -7.8490   -3.1420    3.2300 oh        1 MOL     -0.589373
     86 H35        -6.2300   -1.7200    0.4890 hn        1 MOL      0.149335
     87 H36        -5.2670   -3.3900    2.7410 h1        1 MOL      0.054874
     88 H37        -6.6140   -1.8880    4.1930 h1        1 MOL     -0.029168
     89 H38        -7.4240   -3.9430    3.5170 ho        1 MOL      0.383370
     90 H39        -7.0320   -0.2070    2.1030 hc        1 MOL      0.058372
     91 H40        -8.5670   -1.1820    2.1720 hc        1 MOL      0.058372
     92 H41        -7.9880   -0.3150    3.5490 hc        1 MOL      0.058372
     93 N9         -3.8680   -1.5740    3.8050 n         1 MOL     -0.279981
     94 C29        -2.7020   -0.7380    4.0820 c3        1 MOL     -0.035558
     95 C30        -1.5370   -0.9360    3.1020 c         1 MOL      0.487815
     96 O16        -0.8490    0.0230    2.9100 o         1 MOL     -0.526588
     97 C31        -2.2550   -1.0770    5.5570 c3        1 MOL      0.128175
     98 C32        -3.3940   -0.9790    6.6290 c3        1 MOL     -0.151063
     99 C33        -1.1050   -0.0580    5.9360 c3        1 MOL     -0.318944
    100 C34        -4.3070    0.2740    6.5460 c3        1 MOL     -0.157374
    101 H42        -4.1430   -2.3640    4.3710 hn        1 MOL      0.244000
    102 H43        -2.9970    0.3130    4.0460 h1        1 MOL      0.143160
    103 H44        -1.8510   -2.0860    5.5160 hc        1 MOL     -0.003225
    104 H45        -2.9370   -1.0300    7.6120 hc        1 MOL      0.059332
    105 H46        -4.0550   -1.8310    6.5050 hc        1 MOL      0.059332
    106 H47        -0.9560   -0.1900    7.0000 hc        1 MOL      0.094598
    107 H48        -0.1330   -0.3030    5.5160 hc        1 MOL      0.094598
    108 H49        -1.4290    0.9610    5.7380 hc        1 MOL      0.094598
    109 H50        -3.8750    1.2200    6.8530 hc        1 MOL      0.049842
    110 H51        -4.6690    0.5910    5.5740 hc        1 MOL      0.049842
    111 H52        -5.1900    0.0590    7.1620 hc        1 MOL      0.049842
    112 N10        -1.3540   -2.1290    2.4730 n         1 MOL     -0.374209
    113 C35        -0.3970   -2.3290    1.3670 c3        1 MOL      0.082534
    114 C36         0.2410   -3.7300    1.4300 c         1 MOL      0.548292
    115 O17        -0.3100   -4.5830    2.2180 o         1 MOL     -0.526435
    116 C37        -1.1020   -2.1200    0.0180 c3        1 MOL      0.113950
    117 C38        -2.4850   -2.7870   -0.0840 c3        1 MOL     -0.212836
    118 O18        -1.1240   -0.7280   -0.2170 oh        1 MOL     -0.403015
    119 H53        -1.9180   -2.8990    2.8020 hn        1 MOL      0.238241
    120 H54         0.4230   -1.6090    1.4250 h1        1 MOL      0.054364
    121 H55        -0.4890   -2.5330   -0.7970 h1        1 MOL     -0.017555
    122 H56        -1.8050   -0.6770   -0.8960 ho        1 MOL      0.288440
    123 H57        -3.1910   -2.2180    0.5200 hc        1 MOL      0.072718
    124 H58        -2.7010   -2.8740   -1.1510 hc        1 MOL      0.072718
    125 H59        -2.5320   -3.8500    0.1910 hc        1 MOL      0.072718
    126 N11         1.3770   -3.9320    0.7850 n         1 MOL     -0.602822
    127 C39         2.2620   -5.1260    0.9850 c3        1 MOL     -0.022494
    128 C40         3.6900   -4.7630    1.2600 c         1 MOL      0.812905
    129 O19         4.2350   -5.3060    2.1810 o         1 MOL     -0.587038
    130 C41         2.1230   -6.1250   -0.1960 c3        1 MOL      0.379324
    131 C42         2.6850   -7.5380    0.0920 c3        1 MOL     -0.297722
    132 O20         2.7450   -5.6170   -1.3430 oh        1 MOL     -0.601246
    133 H60         1.7980   -3.1560    0.2900 hn        1 MOL      0.313090
    134 H61         1.9540   -5.6970    1.8580 h1        1 MOL      0.083247
    135 H62         1.0670   -6.3290   -0.3480 h1        1 MOL      0.020448
    136 H63         2.2130   -4.8910   -1.6970 ho        1 MOL      0.371877
    137 H64         2.3120   -7.9210    1.0450 hc        1 MOL      0.082133
    138 H65         2.4520   -8.2360   -0.7140 hc        1 MOL      0.082133
    139 H66         3.7370   -7.4120    0.3530 hc        1 MOL      0.082133
    140 N12         4.3480   -3.8990    0.4590 n         1 MOL     -0.748720
    141 C43         5.6970   -3.3670    0.7130 c3        1 MOL      0.018504
    142 C44         5.6850   -1.8230    0.4430 c         1 MOL      0.925129
    143 O21         5.2250   -1.4790   -0.6230 o         1 MOL     -0.619776
    144 C45         6.6860   -4.2120   -0.1940 c3        1 MOL     -0.025576
    145 C46         8.1040   -3.6680   -0.1300 c3        1 MOL     -0.130794
    146 C47         8.9670   -4.3020   -1.1540 c3        1 MOL      0.130445
    147 C48        10.3910   -3.9880   -0.8130 c3        1 MOL      0.077203
    148 N13        11.4280   -4.7310   -1.6390 n4        1 MOL     -0.342855
    149 H67         3.9370   -3.6260   -0.4250 hn        1 MOL      0.364628
    150 H68         5.9150   -3.5260    1.7730 h1        1 MOL      0.093309
    151 H69         6.3950   -4.3040   -1.2390 hc        1 MOL      0.048735
    152 H70         6.7150   -5.2250    0.2090 hc        1 MOL      0.048735
    153 H71         8.4230   -3.7700    0.9080 hc        1 MOL      0.036198
    154 H72         8.0560   -2.5980   -0.3380 hc        1 MOL      0.036198
    155 H73         8.8010   -4.0620   -2.2030 hc        1 MOL      0.000936
    156 H74         8.8290   -5.3770   -0.9960 hc        1 MOL      0.000936
    157 H75        10.5220   -4.1660    0.2520 hx        1 MOL      0.057974
    158 H76        10.6060   -2.9400   -1.0100 hx        1 MOL      0.057974
    159 H77        11.0880   -4.6790   -2.5850 hn        1 MOL      0.273420
    160 H78        12.3300   -4.3060   -1.5010 hn        1 MOL      0.273420
    161 H79        11.5210   -5.6680   -1.2640 hn        1 MOL      0.273420
    162 N14         6.1450   -0.9840    1.4120 n         1 MOL     -0.951065
    163 C49         5.9220    0.4630    1.1730 c3        1 MOL      0.607003
    164 C50         4.4780    0.8520    1.6400 c         1 MOL      0.130826
    165 O22         3.6640    1.2970    0.7830 o         1 MOL     -0.515721
    166 C51         6.9170    1.3620    1.8140 c3        1 MOL     -0.094565
    167 C52         6.7960    2.8680    1.7860 c3        1 MOL     -0.200434
    168 C53         6.8590    3.3920    0.3320 c         1 MOL      0.657828
    169 O23         8.0050    3.6480   -0.1250 o         1 MOL     -0.672136
    170 O24         5.8510    3.4350   -0.4200 o         1 MOL     -0.672136
    171 H80         6.4240   -1.2930    2.3340 hn        1 MOL      0.354549
    172 H81         5.9650    0.7100    0.1150 h1        1 MOL      0.029665
    173 H82         7.8480    1.0560    1.3230 hc        1 MOL      0.019298
    174 H83         7.0790    1.1460    2.8650 hc        1 MOL      0.019298
    175 H84         7.5670    3.3150    2.4180 hc        1 MOL      0.047260
    176 H85         5.8700    3.0830    2.3300 hc        1 MOL      0.047260
    177 N15         3.9620    0.5350    2.8140 n         1 MOL     -0.220012
    178 C54         4.6240    0.0500    4.0560 c3        1 MOL     -0.142704
    179 H86         4.3440   -0.9880    4.2350 h1        1 MOL      0.084162
    180 H87         5.7070    0.1200    3.9430 h1        1 MOL      0.084162
    181 H88         4.3060    0.6620    4.9000 h1        1 MOL      0.084162
    182 H89         2.9820    0.7570    2.9350 hn        1 MOL      0.295431
    183 Ca1         3.2590    2.7620   -1.3220 Ca        1 MOL      1.776551
    184 O25         4.4130    0.6170   -2.3390 oh        1 MOL     -0.938038
    185 O26         2.8110    3.8320    1.0700 oh        1 MOL     -0.938038
    186 H90         4.9080   -0.1790   -2.1660 ho        1 MOL      0.439174
    187 H91         2.3420    3.4540    1.8120 ho        1 MOL      0.439174
    188 H92         3.8210    0.3790   -3.0510 ho        1 MOL      0.439174
    189 H93         3.2700    4.5860    1.4300 ho        1 MOL      0.439174
    190 O27         1.2140    1.2680   -0.3160 oh        1 MOL     -0.938038
    191 H94         1.5250    0.3660   -0.4540 ho        1 MOL      0.439174
    192 H95         0.9490    1.2890    0.5940 ho        1 MOL      0.439174
    193 O28         4.3870    4.1470   -3.3060 oh        1 MOL     -0.938038
    194 H96         3.8770    4.3570   -4.0910 ho        1 MOL      0.439174
    195 H97         5.2960    4.2590   -3.5680 ho        1 MOL      0.439174
@<TRIPOS>BOND
     1    1    2 1   
     2    1    4 1   
     3    1    5 1   
     4    1    6 1   
     5    2    3 2   
     6    2    7 1   
     7    7    8 1   
     8    7   15 1   
     9    8    9 1   
    10    8   11 1   
    11    8   16 1   
    12    9   10 2   
    13    9   19 1   
    14   11   12 1   
    15   11   17 1   
    16   11   18 1   
    17   12   13 1   
    18   12   14 1   
    19   19   20 1   
    20   19   28 1   
    21   20   21 1   
    22   20   23 1   
    23   20   29 1   
    24   21   22 2   
    25   21   41 1   
    26   23   24 1   
    27   23   30 1   
    28   23   31 1   
    29   24   25 1   
    30   24   32 1   
    31   24   33 1   
    32   25   26 1   
    33   25   34 1   
    34   25   35 1   
    35   26   27 1   
    36   26   36 1   
    37   26   37 1   
    38   27   38 1   
    39   27   39 1   
    40   27   40 1   
    41   41   42 1   
    42   41   49 1   
    43   42   43 1   
    44   42   45 1   
    45   42   50 1   
    46   43   44 2   
    47   43   53 1   
    48   45   46 1   
    49   45   51 1   
    50   45   52 1   
    51   46   47 1   
    52   46   48 1   
    53   53   54 1   
    54   53   57 1   
    55   54   55 1   
    56   54   58 1   
    57   54   59 1   
    58   55   56 2   
    59   55   60 1   
    60   60   61 1   
    61   60   68 1   
    62   61   62 1   
    63   61   64 1   
    64   61   69 1   
    65   62   63 2   
    66   62   72 1   
    67   64   65 1   
    68   64   70 1   
    69   64   71 1   
    70   65   66 1   
    71   65   67 1   
    72   72   73 1   
    73   72   76 1   
    74   73   74 1   
    75   73   77 1   
    76   73   78 1   
    77   74   75 2   
    78   74   79 1   
    79   79   80 1   
    80   79   86 1   
    81   80   81 1   
    82   80   83 1   
    83   80   87 1   
    84   81   82 2   
    85   81   93 1   
    86   83   84 1   
    87   83   85 1   
    88   83   88 1   
    89   84   90 1   
    90   84   91 1   
    91   84   92 1   
    92   85   89 1   
    93   93   94 1   
    94   93  101 1   
    95   94   95 1   
    96   94   97 1   
    97   94  102 1   
    98   95   96 2   
    99   95  112 1   
   100   97   98 1   
   101   97   99 1   
   102   97  103 1   
   103   98  100 1   
   104   98  104 1   
   105   98  105 1   
   106   99  106 1   
   107   99  107 1   
   108   99  108 1   
   109  100  109 1   
   110  100  110 1   
   111  100  111 1   
   112  112  113 1   
   113  112  119 1   
   114  113  114 1   
   115  113  116 1   
   116  113  120 1   
   117  114  115 2   
   118  114  126 1   
   119  116  117 1   
   120  116  118 1   
   121  116  121 1   
   122  117  123 1   
   123  117  124 1   
   124  117  125 1   
   125  118  122 1   
   126  126  127 1   
   127  126  133 1   
   128  127  128 1   
   129  127  130 1   
   130  127  134 1   
   131  128  129 2   
   132  128  140 1   
   133  130  131 1   
   134  130  132 1   
   135  130  135 1   
   136  131  137 1   
   137  131  138 1   
   138  131  139 1   
   139  132  136 1   
   140  140  141 1   
   141  140  149 1   
   142  141  142 1   
   143  141  144 1   
   144  141  150 1   
   145  142  143 2   
   146  142  162 1   
   147  144  145 1   
   148  144  151 1   
   149  144  152 1   
   150  145  146 1   
   151  145  153 1   
   152  145  154 1   
   153  146  147 1   
   154  146  155 1   
   155  146  156 1   
   156  147  148 1   
   157  147  157 1   
   158  147  158 1   
   159  148  159 1   
   160  148  160 1   
   161  148  161 1   
   162  162  163 1   
   163  162  171 1   
   164  163  164 1   
   165  163  166 1   
   166  163  172 1   
   167  164  165 2   
   168  164  177 1   
   169  166  167 1   
   170  166  173 1   
   171  166  174 1   
   172  167  168 1   
   173  167  175 1   
   174  167  176 1   
   175  168  169 1   
   176  168  170 1   
   177  177  178 1   
   178  177  182 1   
   179  178  179 1   
   180  178  180 1   
   181  178  181 1   
   182  184  186 1   
   183  184  188 1   
   184  185  187 1   
   185  185  189 1   
   186  190  191 1   
   187  190  192 1   
   188  193  194 1   
   189  193  195 1   
@<TRIPOS>SUBSTRUCTURE
     1 MOL         1 TEMP              0 ****  ****    0 ROOT
