@<TRIPOS>MOLECULE
MOL
  189   185     1     0     0
SMALL
resp


@<TRIPOS>ATOM
      1 C1          4.3660    3.9730   -4.2330 c3        1 MOL     -0.367033
      2 C2          5.0620    3.5690   -2.9600 c         1 MOL      0.689690
      3 O1          4.3790    3.3400   -1.9180 o         1 MOL     -0.638484
      4 H1          3.3240    3.6540   -4.1930 hc        1 MOL      0.100075
      5 H2          4.4100    5.0560   -4.3430 hc        1 MOL      0.100075
      6 H3          4.8570    3.5000   -5.0820 hc        1 MOL      0.100075
      7 N1          6.3370    3.2010   -3.0630 n         1 MOL     -0.605296
      8 C3          7.0160    2.2090   -2.2020 c3        1 MOL      0.306664
      9 C4          6.1120    0.9410   -1.8410 c         1 MOL      0.433311
     10 O2          5.5670    0.8390   -0.7360 o         1 MOL     -0.568848
     11 C5          7.7780    2.8070   -1.0110 c3        1 MOL     -0.351309
     12 C6          7.1880    4.0560   -0.3640 c         1 MOL      0.811919
     13 O3          6.2310    3.8590    0.4220 o         1 MOL     -0.725000
     14 O4          7.6420    5.1950   -0.4770 o         1 MOL     -0.725000
     15 H4          6.6890    3.3740   -3.9970 hn        1 MOL      0.318927
     16 H5          7.6950    1.7430   -2.9180 h1        1 MOL     -0.013333
     17 H6          8.7400    3.1500   -1.3810 hc        1 MOL      0.068091
     18 H7          7.9510    2.0120   -0.2860 hc        1 MOL      0.068091
     19 N2          5.7780    0.2360   -2.9090 n         1 MOL     -0.514270
     20 C7          5.0070   -1.0510   -3.0410 c3        1 MOL      0.031425
     21 C8          5.5280   -2.2580   -2.1170 c         1 MOL      0.469314
     22 O5          5.8850   -3.3290   -2.6130 o         1 MOL     -0.554659
     23 C9          3.5230   -0.7110   -2.7410 c3        1 MOL      0.123939
     24 C10         2.6590   -1.9430   -2.9880 c3        1 MOL      0.057683
     25 C11         3.0210    0.4120   -3.5960 c3        1 MOL     -0.341796
     26 C12         2.7960   -2.6410   -4.3660 c3        1 MOL     -0.176996
     27 H8          6.1390    0.5780   -3.7870 hn        1 MOL      0.305874
     28 H9          5.1580   -1.4230   -4.0570 h1        1 MOL      0.074437
     29 H10         3.4420   -0.5090   -1.6670 hc        1 MOL     -0.031234
     30 H11         1.6250   -1.6350   -2.8610 hc        1 MOL      0.027689
     31 H12         2.9030   -2.6110   -2.1530 hc        1 MOL      0.027689
     32 H13         1.9510    0.5830   -3.4670 hc        1 MOL      0.084382
     33 H14         3.5400    1.3060   -3.2530 hc        1 MOL      0.084382
     34 H15         3.2240    0.2630   -4.6610 hc        1 MOL      0.084382
     35 H16         3.8660   -2.7380   -4.5530 hc        1 MOL      0.025580
     36 H17         2.2980   -3.6150   -4.4310 hc        1 MOL      0.025580
     37 H18         2.3680   -1.9710   -5.1120 hc        1 MOL      0.025580
     38 N3          5.7270   -2.0600   -0.8050 n         1 MOL     -0.183465
     39 C13         6.5300   -2.8860    0.0900 c3        1 MOL     -0.132263
     40 C14         5.8110   -4.1510    0.7230 c         1 MOL      0.650943
     41 O6          6.2270   -5.3240    0.5790 o         1 MOL     -0.571342
     42 C15         7.1950   -1.9630    1.2250 c3        1 MOL     -0.332131
     43 C16         8.2140   -2.8560    1.9200 c         1 MOL      0.695601
     44 O7          8.0160   -3.2360    3.1080 o         1 MOL     -0.706987
     45 O8          9.2090   -3.2130    1.2280 o         1 MOL     -0.706987
     46 H19         5.6000   -1.0940   -0.5090 hn        1 MOL      0.273202
     47 H20         7.2990   -3.2590   -0.5870 h1        1 MOL      0.112297
     48 H21         6.4350   -1.5320    1.8740 hc        1 MOL      0.100646
     49 H22         7.5900   -1.0570    0.7600 hc        1 MOL      0.100646
     50 N4          4.6440   -4.1080    1.3330 n         1 MOL     -0.437540
     51 C17         3.8570   -2.9670    1.8650 c3        1 MOL     -0.041248
     52 C18         2.7360   -3.4080    2.7420 c         1 MOL      0.623873
     53 O9          2.4220   -4.5930    2.7820 o         1 MOL     -0.509021
     54 H23         4.1300   -4.9540    1.5130 hn        1 MOL      0.253914
     55 H24         3.4070   -2.3010    1.1270 h1        1 MOL      0.084759
     56 H25         4.4860   -2.3610    2.5260 h1        1 MOL      0.084759
     57 N5          2.1160   -2.5630    3.5740 n         1 MOL     -0.604246
     58 C19         2.1680   -1.1210    3.6670 c3        1 MOL      0.304594
     59 C20         2.1900   -0.3770    2.2900 c         1 MOL      0.291813
     60 O10         3.2580    0.1170    1.8520 o         1 MOL     -0.582808
     61 C21         3.3480   -0.6290    4.5290 c3        1 MOL     -0.450411
     62 C22         3.4810    0.8990    4.8200 c         1 MOL      0.835681
     63 O11         4.5890    1.3810    5.1670 o         1 MOL     -0.709108
     64 O12         2.4890    1.5460    4.7400 o         1 MOL     -0.709108
     65 H26         1.4040   -2.9670    4.1670 hn        1 MOL      0.318243
     66 H27         1.2070   -0.9030    4.1350 h1        1 MOL      0.046364
     67 H28         4.2940   -0.8580    4.0390 hc        1 MOL      0.100612
     68 H29         3.4200   -1.1610    5.4780 hc        1 MOL      0.100612
     69 N6          1.1200   -0.3660    1.4810 n         1 MOL     -0.208492
     70 C23        -0.0890   -1.1280    1.6500 c3        1 MOL     -0.248355
     71 C24        -0.1210   -2.4020    0.7730 c         1 MOL      0.443447
     72 O13         0.7710   -2.6620    0.0180 o         1 MOL     -0.382363
     73 H30         1.1960    0.0140    0.5470 hn        1 MOL      0.207867
     74 H31        -0.9310   -0.4450    1.5410 h1        1 MOL      0.093579
     75 H32        -0.1660   -1.4200    2.6980 h1        1 MOL      0.093579
     76 N7         -1.1670   -3.2310    0.9300 n         1 MOL     -0.402912
     77 C25        -1.3210   -4.5180    0.2840 c3        1 MOL     -0.038471
     78 C26        -1.6990   -4.4160   -1.2390 c         1 MOL      0.379771
     79 O14        -1.4460   -5.3440   -2.0070 o         1 MOL     -0.484690
     80 C27        -2.4430   -5.3950    0.9860 c3        1 MOL      0.119504
     81 C28        -2.2350   -5.7840    2.4500 c3        1 MOL     -0.287364
     82 C29        -0.7890   -6.0700    2.8210 c         1 MOL      0.635101
     83 N8         -0.3020   -5.4150    3.8370 n         1 MOL     -0.682939
     84 O15        -0.1210   -6.8280    2.1350 o         1 MOL     -0.529015
     85 H33        -1.8910   -2.8620    1.5390 hn        1 MOL      0.264732
     86 H34        -0.4040   -5.1100    0.3220 h1        1 MOL      0.144142
     87 H35        -2.5150   -6.2500    0.3210 hc        1 MOL      0.025982
     88 H36        -3.3680   -4.8230    0.9180 hc        1 MOL      0.025982
     89 H37        -2.8360   -6.6690    2.6730 hc        1 MOL      0.052053
     90 H38        -2.6360   -5.0160    3.1230 hc        1 MOL      0.052053
     91 H39        -0.9660   -4.7810    4.2480 hn        1 MOL      0.313452
     92 H40         0.6970   -5.3740    4.0210 hn        1 MOL      0.313452
     93 N9         -2.3220   -3.3150   -1.6620 n         1 MOL     -0.328034
     94 C30        -2.9360   -3.3110   -3.0640 c3        1 MOL     -0.079460
     95 C31        -4.4050   -2.8540   -3.2000 c         1 MOL      0.705771
     96 O16        -5.0250   -3.2330   -4.1640 o         1 MOL     -0.568391
     97 C32        -2.0070   -2.4280   -3.8980 c3        1 MOL      0.150093
     98 C33        -0.6540   -3.1750   -4.2600 c3        1 MOL     -0.229661
     99 C34        -1.5550   -1.1320   -3.1630 c3        1 MOL     -0.229661
    100 H41        -2.5270   -2.5530   -1.0370 hn        1 MOL      0.213173
    101 H42        -2.8470   -4.2450   -3.6210 h1        1 MOL      0.108014
    102 H43        -2.6110   -2.2620   -4.7920 hc        1 MOL     -0.026175
    103 H44        -0.0710   -2.6580   -5.0280 hc        1 MOL      0.068004
    104 H45        -0.0370   -3.3080   -3.3730 hc        1 MOL      0.068004
    105 H46        -0.8760   -4.1620   -4.6580 hc        1 MOL      0.068004
    106 H47        -1.2380   -0.4870   -3.9740 hc        1 MOL      0.068004
    107 H48        -2.4850   -0.7310   -2.7470 hc        1 MOL      0.068004
    108 H49        -0.8170   -1.2500   -2.3690 hc        1 MOL      0.068004
    109 N10        -4.9820   -2.1370   -2.2090 n         1 MOL     -0.634228
    110 C35        -6.3650   -1.7020   -2.2910 c3        1 MOL      0.208588
    111 C36        -6.6270   -0.2870   -1.8080 c         1 MOL      0.481163
    112 O17        -7.3730    0.4480   -2.4410 o         1 MOL     -0.548935
    113 C37        -7.0690   -2.7160   -1.3670 c3        1 MOL     -0.301275
    114 C38        -7.0810   -4.1940   -1.7590 c         1 MOL      0.740242
    115 N11        -7.5260   -4.5470   -2.9420 n         1 MOL     -0.858706
    116 O18        -6.6840   -5.0730   -1.0320 o         1 MOL     -0.579733
    117 H50        -4.4450   -1.8810   -1.3950 hn        1 MOL      0.314484
    118 H51        -6.8540   -1.8360   -3.2580 h1        1 MOL      0.055007
    119 H52        -8.1100   -2.4120   -1.2710 hc        1 MOL      0.072318
    120 H53        -6.6870   -2.6970   -0.3500 hc        1 MOL      0.072318
    121 H54        -7.8490   -3.9360   -3.6730 hn        1 MOL      0.383903
    122 H55        -7.3660   -5.5120   -3.2050 hn        1 MOL      0.383903
    123 N12        -5.9780    0.1400   -0.7200 n         1 MOL     -0.302918
    124 C39        -6.2740    1.4440   -0.0620 c3        1 MOL      0.006916
    125 C40        -4.9810    2.1630    0.3140 c         1 MOL      0.529198
    126 O19        -3.9450    1.4610    0.4950 o         1 MOL     -0.519847
    127 C41        -7.0390    1.1460    1.2330 c3        1 MOL     -0.183946
    128 C42        -8.3960    0.5480    1.4290 ca        1 MOL      0.181318
    129 C43        -9.4220    1.5080    1.5380 ca        1 MOL     -0.196515
    130 C44        -8.6820   -0.7510    1.6770 ca        1 MOL     -0.196515
    131 C45       -10.7910    1.1880    1.8020 ca        1 MOL     -0.213416
    132 C46       -10.0420   -1.1140    1.9300 ca        1 MOL     -0.213416
    133 C47       -11.0690   -0.1430    1.9500 ca        1 MOL      0.262598
    134 O20       -12.3320   -0.5700    2.3370 oh        1 MOL     -0.515390
    135 H56        -5.2770   -0.4440   -0.2750 hn        1 MOL      0.240990
    136 H57        -6.8580    2.0500   -0.7500 h1        1 MOL      0.075391
    137 H58        -7.0260    1.9950    1.9150 hc        1 MOL      0.067869
    138 H59        -6.3490    0.4540    1.7240 hc        1 MOL      0.067869
    139 H60        -9.3090    2.5830    1.4510 ha        1 MOL      0.134384
    140 H61        -7.9170   -1.5020    1.8100 ha        1 MOL      0.134384
    141 H62       -11.4730    2.0280    1.8280 ha        1 MOL      0.138898
    142 H63       -10.3060   -2.1490    2.1190 ha        1 MOL      0.138898
    143 H64       -13.0070    0.1130    2.3180 ho        1 MOL      0.372448
    144 N13        -5.1130    3.4820    0.5510 n         1 MOL     -0.533306
    145 C48        -4.1570    4.3170    1.2310 c3        1 MOL      0.141805
    146 C49        -2.7820    4.5860    0.4740 c         1 MOL      0.438412
    147 O21        -1.7560    5.0100    0.9640 o         1 MOL     -0.426006
    148 C50        -4.0440    3.7090    2.6310 c3        1 MOL     -0.388310
    149 C51        -3.2430    4.6320    3.6350 c3        1 MOL     -0.125966
    150 C52        -3.9070    5.9220    3.9380 c         1 MOL      0.697532
    151 O22        -3.1850    6.9020    4.2270 o         1 MOL     -0.737650
    152 O23        -5.1810    5.9670    4.0400 o         1 MOL     -0.737650
    153 H65        -6.0330    3.8980    0.4580 hn        1 MOL      0.325564
    154 H66        -4.6850    5.2690    1.2510 h1        1 MOL      0.072711
    155 H67        -3.3800    2.8550    2.5030 hc        1 MOL      0.141242
    156 H68        -4.9390    3.3300    3.1030 hc        1 MOL      0.141242
    157 H69        -2.2200    4.7710    3.2930 hc        1 MOL      0.049303
    158 H70        -3.1170    4.0150    4.5340 hc        1 MOL      0.049303
    159 N14        -2.7050    4.1930   -0.7980 n         1 MOL     -0.475223
    160 C53        -1.4860    4.0730   -1.6380 c3        1 MOL      0.054729
    161 C54        -1.7020    4.8300   -2.9690 c         1 MOL      0.469324
    162 O24        -0.7740    5.0180   -3.7670 o         1 MOL     -0.525784
    163 C55        -1.1770    2.5870   -1.7800 c3        1 MOL     -0.264242
    164 C56        -0.6090    1.9880   -0.5310 c3        1 MOL      0.238108
    165 C57         0.9200    2.2430   -0.5270 c         1 MOL      0.549403
    166 O25         1.6900    1.2560   -0.6030 o         1 MOL     -0.611796
    167 O26         1.4100    3.3510   -0.2180 o         1 MOL     -0.611796
    168 H71        -3.5950    3.8330   -1.1160 hn        1 MOL      0.228129
    169 H72        -0.7110    4.6730   -1.1780 h1        1 MOL      0.148787
    170 H73        -0.4280    2.5940   -2.5750 hc        1 MOL      0.046073
    171 H74        -2.0700    2.0260   -2.0750 hc        1 MOL      0.046073
    172 H75        -0.7850    0.9170   -0.4790 hc        1 MOL     -0.020270
    173 H76        -1.1160    2.2970    0.3900 hc        1 MOL     -0.020270
    174 N15        -2.9240    5.3060   -3.2500 n         1 MOL     -0.253182
    175 C58        -3.2860    6.0180   -4.5110 c3        1 MOL     -0.221808
    176 H77        -2.7820    5.5440   -5.3530 h1        1 MOL      0.100337
    177 H78        -4.3650    5.9680   -4.6600 h1        1 MOL      0.100337
    178 H79        -2.9760    7.0600   -4.4430 h1        1 MOL      0.100337
    179 H80        -3.6060    5.1980   -2.5040 hn        1 MOL      0.215757
    180 Ca1         3.9800    2.4190    0.5670 Ca        1 MOL      1.744404
    181 O27         3.7350    5.1530    0.4350 oh        1 MOL     -0.821977
    182 H81         3.1720    5.5130   -0.2700 ho        1 MOL      0.394125
    183 H82         4.6120    5.4590    0.2200 ho        1 MOL      0.394125
    184 O28         2.9100    3.2460    2.7140 oh        1 MOL     -0.821977
    185 H83         2.0140    3.5670    2.5790 ho        1 MOL      0.394125
    186 H84         2.8590    2.7600    3.5370 ho        1 MOL      0.394125
    187 O29         5.6790    1.6920    2.4740 oh        1 MOL     -0.821977
    188 H85         6.5600    1.3080    2.4650 ho        1 MOL      0.394125
    189 H86         5.3830    1.5960    3.3840 ho        1 MOL      0.394125
@<TRIPOS>BOND
     1    1    2 1   
     2    1    4 1   
     3    1    5 1   
     4    1    6 1   
     5    2    3 2   
     6    2    7 1   
     7    7    8 1   
     8    7   15 1   
     9    8    9 1   
    10    8   11 1   
    11    8   16 1   
    12    9   10 2   
    13    9   19 1   
    14   11   12 1   
    15   11   17 1   
    16   11   18 1   
    17   12   13 1   
    18   12   14 1   
    19   19   20 1   
    20   19   27 1   
    21   20   21 1   
    22   20   23 1   
    23   20   28 1   
    24   21   22 2   
    25   21   38 1   
    26   23   24 1   
    27   23   25 1   
    28   23   29 1   
    29   24   26 1   
    30   24   30 1   
    31   24   31 1   
    32   25   32 1   
    33   25   33 1   
    34   25   34 1   
    35   26   35 1   
    36   26   36 1   
    37   26   37 1   
    38   38   39 1   
    39   38   46 1   
    40   39   40 1   
    41   39   42 1   
    42   39   47 1   
    43   40   41 2   
    44   40   50 1   
    45   42   43 1   
    46   42   48 1   
    47   42   49 1   
    48   43   44 1   
    49   43   45 1   
    50   50   51 1   
    51   50   54 1   
    52   51   52 1   
    53   51   55 1   
    54   51   56 1   
    55   52   53 2   
    56   52   57 1   
    57   57   58 1   
    58   57   65 1   
    59   58   59 1   
    60   58   61 1   
    61   58   66 1   
    62   59   60 2   
    63   59   69 1   
    64   61   62 1   
    65   61   67 1   
    66   61   68 1   
    67   62   63 1   
    68   62   64 1   
    69   69   70 1   
    70   69   73 1   
    71   70   71 1   
    72   70   74 1   
    73   70   75 1   
    74   71   72 2   
    75   71   76 1   
    76   76   77 1   
    77   76   85 1   
    78   77   78 1   
    79   77   80 1   
    80   77   86 1   
    81   78   79 2   
    82   78   93 1   
    83   80   81 1   
    84   80   87 1   
    85   80   88 1   
    86   81   82 1   
    87   81   89 1   
    88   81   90 1   
    89   82   83 1   
    90   82   84 2   
    91   83   91 1   
    92   83   92 1   
    93   93   94 1   
    94   93  100 1   
    95   94   95 1   
    96   94   97 1   
    97   94  101 1   
    98   95   96 2   
    99   95  109 1   
   100   97   98 1   
   101   97   99 1   
   102   97  102 1   
   103   98  103 1   
   104   98  104 1   
   105   98  105 1   
   106   99  106 1   
   107   99  107 1   
   108   99  108 1   
   109  109  110 1   
   110  109  117 1   
   111  110  111 1   
   112  110  113 1   
   113  110  118 1   
   114  111  112 2   
   115  111  123 1   
   116  113  114 1   
   117  113  119 1   
   118  113  120 1   
   119  114  115 1   
   120  114  116 2   
   121  115  121 1   
   122  115  122 1   
   123  123  124 1   
   124  123  135 1   
   125  124  125 1   
   126  124  127 1   
   127  124  136 1   
   128  125  126 2   
   129  125  144 1   
   130  127  128 1   
   131  127  137 1   
   132  127  138 1   
   133  128  129 ar  
   134  128  130 ar  
   135  129  131 ar  
   136  129  139 1   
   137  130  132 ar  
   138  130  140 1   
   139  131  133 ar  
   140  131  141 1   
   141  132  133 ar  
   142  132  142 1   
   143  133  134 1   
   144  134  143 1   
   145  144  145 1   
   146  144  153 1   
   147  145  146 1   
   148  145  148 1   
   149  145  154 1   
   150  146  147 2   
   151  146  159 1   
   152  148  149 1   
   153  148  155 1   
   154  148  156 1   
   155  149  150 1   
   156  149  157 1   
   157  149  158 1   
   158  150  151 1   
   159  150  152 1   
   160  159  160 1   
   161  159  168 1   
   162  160  161 1   
   163  160  163 1   
   164  160  169 1   
   165  161  162 2   
   166  161  174 1   
   167  163  164 1   
   168  163  170 1   
   169  163  171 1   
   170  164  165 1   
   171  164  172 1   
   172  164  173 1   
   173  165  166 1   
   174  165  167 1   
   175  174  175 1   
   176  174  179 1   
   177  175  176 1   
   178  175  177 1   
   179  175  178 1   
   180  181  182 1   
   181  181  183 1   
   182  184  185 1   
   183  184  186 1   
   184  187  188 1   
   185  187  189 1   
@<TRIPOS>SUBSTRUCTURE
     1 MOL         1 TEMP              0 ****  ****    0 ROOT
