@<TRIPOS>MOLECULE
MOL
  192   187     1     0     0
SMALL
resp


@<TRIPOS>ATOM
      1 C1          9.6260    0.0910    1.4910 c3        1 MOL     -0.404198
      2 C2          8.3250   -0.1870    0.7480 c         1 MOL      0.766958
      3 O1          7.2960   -0.3820    1.4010 o         1 MOL     -0.656406
      4 H1          9.4050    0.5830    2.4380 hc        1 MOL      0.102142
      5 H2         10.1440   -0.8480    1.6820 hc        1 MOL      0.102142
      6 H3         10.2600    0.7380    0.8850 hc        1 MOL      0.102142
      7 N1          8.3760   -0.3970   -0.5610 n         1 MOL     -0.690472
      8 C3          7.2000   -0.6120   -1.3580 c3        1 MOL      0.026784
      9 C4          6.6920   -2.0890   -1.3170 c         1 MOL      0.704490
     10 O2          6.5760   -2.7340   -2.3540 o         1 MOL     -0.517112
     11 C5          7.4400   -0.1580   -2.8320 c3        1 MOL     -0.327489
     12 C6          8.1090    1.2020   -3.0940 c         1 MOL      0.715795
     13 O3          8.5570    1.9820   -2.2430 o         1 MOL     -0.647582
     14 O4          8.3840    1.4040   -4.3130 o         1 MOL     -0.647582
     15 H4          9.2050   -0.1580   -1.0860 hn        1 MOL      0.394082
     16 H5          6.4490   -0.0470   -0.8090 h1        1 MOL      0.101750
     17 H6          6.5240   -0.2650   -3.4020 hc        1 MOL      0.115978
     18 H7          8.1690   -0.8890   -3.1780 hc        1 MOL      0.115978
     19 N2          6.4820   -2.6120   -0.0780 n         1 MOL     -0.559218
     20 C7          5.9030   -3.9870    0.1720 c3        1 MOL      0.035783
     21 C8          4.4780   -4.1930   -0.3090 c         1 MOL      0.461722
     22 O5          4.1640   -5.1770   -0.9530 o         1 MOL     -0.536976
     23 C9          5.9940   -4.2520    1.6920 c3        1 MOL     -0.157394
     24 C10         7.4070   -4.2760    2.1530 c3        1 MOL      0.025295
     25 C11         7.4800   -5.1290    3.4760 c3        1 MOL      0.069956
     26 C12         8.9580   -4.9800    3.9220 c3        1 MOL      0.034286
     27 N3          9.0470   -5.2890    5.3590 n4        1 MOL     -0.328388
     28 H8          6.5860   -1.9040    0.6350 hn        1 MOL      0.245127
     29 H9          6.5490   -4.6510   -0.3910 h1        1 MOL      0.100513
     30 H10         5.4400   -5.1680    1.8830 hc        1 MOL      0.063673
     31 H11         5.4280   -3.4840    2.2370 hc        1 MOL      0.063673
     32 H12         7.8390   -3.2930    2.3750 hc        1 MOL      0.033505
     33 H13         8.0310   -4.7330    1.3950 hc        1 MOL      0.033505
     34 H14         7.1550   -6.1650    3.3950 hc        1 MOL      0.003098
     35 H15         6.8160   -4.6480    4.1870 hc        1 MOL      0.003098
     36 H16         9.1980   -3.9520    3.6320 hx        1 MOL      0.070941
     37 H17         9.5240   -5.6610    3.2880 hx        1 MOL      0.070941
     38 H18         8.4920   -4.7050    5.9620 hn        1 MOL      0.312174
     39 H19         8.6940   -6.2200    5.4770 hn        1 MOL      0.312174
     40 H20         9.9980   -5.1810    5.7040 hn        1 MOL      0.312174
     41 N4          3.6030   -3.2120   -0.1600 n         1 MOL     -0.252324
     42 C13         3.6260   -1.9590    0.6080 c3        1 MOL     -0.175196
     43 C14         3.7440   -0.6790   -0.2740 c         1 MOL      0.267683
     44 O6          3.6090   -0.7410   -1.5510 o         1 MOL     -0.438021
     45 C15         2.4340   -1.9250    1.6550 c3        1 MOL     -0.209985
     46 C16         1.0380   -2.0740    1.1250 c         1 MOL      0.843000
     47 O7          0.7710   -1.4300    0.0760 o         1 MOL     -0.721454
     48 O8          0.2030   -2.7170    1.7520 o         1 MOL     -0.721454
     49 H21         2.7740   -3.4920   -0.6780 hn        1 MOL      0.301569
     50 H22         4.4940   -1.9270    1.2610 h1        1 MOL      0.178582
     51 H23         2.4830   -1.0230    2.2620 hc        1 MOL      0.048729
     52 H24         2.5290   -2.7580    2.3470 hc        1 MOL      0.048729
     53 N5          3.9360    0.5370    0.2910 n         1 MOL     -0.179830
     54 C17         4.1140    1.7160   -0.5230 c3        1 MOL      0.028635
     55 C18         2.8370    2.4810   -0.8740 c         1 MOL      0.513449
     56 O9          1.7490    2.0160   -0.6560 o         1 MOL     -0.617570
     57 H25         3.9890    0.6510    1.2940 hn        1 MOL      0.238525
     58 H26         4.5940    1.4000   -1.4510 h1        1 MOL      0.063233
     59 H27         4.8340    2.4070   -0.0830 h1        1 MOL      0.063233
     60 N6          3.0960    3.6210   -1.5580 n         1 MOL     -0.542307
     61 C19         2.1080    4.5140   -2.1840 c3        1 MOL      0.455960
     62 C20         2.6570    5.9750   -2.1700 c         1 MOL      0.286631
     63 O10         3.8740    6.1910   -2.3080 o         1 MOL     -0.499028
     64 C21         1.8250    4.0550   -3.6500 c3        1 MOL     -0.385355
     65 C22         1.3650    2.6290   -3.7420 c         1 MOL      0.739767
     66 O11         2.1070    1.7600   -4.3220 o         1 MOL     -0.679012
     67 O12         0.3200    2.2400   -3.1890 o         1 MOL     -0.679012
     68 H28         4.0770    3.7930   -1.7310 hn        1 MOL      0.309908
     69 H29         1.2020    4.5060   -1.5830 h1        1 MOL     -0.002923
     70 H30         2.7160    4.0800   -4.2680 hc        1 MOL      0.093544
     71 H31         1.0220    4.6290   -4.1170 hc        1 MOL      0.093544
     72 N7          1.8610    7.0130   -2.2360 n         1 MOL     -0.254336
     73 C23         0.4070    7.0960   -1.9990 c3        1 MOL     -0.255757
     74 C24        -0.2320    6.5480   -0.6870 c         1 MOL      0.710090
     75 O13         0.3570    6.7080    0.4380 o         1 MOL     -0.548416
     76 H32         2.3560    7.8870   -2.3590 hn        1 MOL      0.295406
     77 H33        -0.0690    6.5570   -2.8200 h1        1 MOL      0.101788
     78 H34         0.1130    8.1440   -2.0010 h1        1 MOL      0.101788
     79 N8         -1.3710    5.8850   -0.8220 n         1 MOL     -0.674578
     80 C25        -2.1750    5.1990    0.2800 c3        1 MOL     -0.064400
     81 C26        -1.3940    4.0050    0.7990 c         1 MOL      0.886435
     82 O14        -0.8930    3.2270   -0.0150 o         1 MOL     -0.705213
     83 C27        -3.5980    4.7940   -0.2850 c3        1 MOL      0.289408
     84 C28        -4.6370    4.6460    0.8420 c3        1 MOL     -0.394674
     85 O15        -3.5080    3.6930   -1.1960 oh        1 MOL     -0.580303
     86 H35        -1.6890    5.7270   -1.7710 hn        1 MOL      0.337414
     87 H36        -2.2880    5.9110    1.0920 h1        1 MOL      0.105433
     88 H37        -4.0800    5.5790   -0.8560 h1        1 MOL      0.055283
     89 H38        -2.7800    3.7650   -1.8250 ho        1 MOL      0.395334
     90 H39        -4.4260    3.8950    1.6060 hc        1 MOL      0.117635
     91 H40        -4.8320    5.5980    1.3300 hc        1 MOL      0.117635
     92 H41        -5.5010    4.2300    0.3410 hc        1 MOL      0.117635
     93 N9         -1.3670    3.8620    2.1300 n         1 MOL     -0.683407
     94 C29        -0.5830    2.7950    2.8210 c3        1 MOL      0.279001
     95 C30        -0.9460    1.3480    2.4490 c         1 MOL      0.188741
     96 O16        -0.3870    0.7860    1.4890 o         1 MOL     -0.563701
     97 C31         0.9470    2.9940    2.7010 c3        1 MOL      0.093089
     98 C32         1.3250    4.3730    3.1570 c3        1 MOL     -0.189878
     99 C33         1.7400    1.9850    3.5330 c3        1 MOL     -0.614923
    100 C34         0.8980    4.7580    4.6130 c3        1 MOL     -0.020452
    101 H42        -1.8800    4.6010    2.5960 hn        1 MOL      0.303310
    102 H43        -0.8210    2.7630    3.8870 h1        1 MOL      0.058956
    103 H44         1.2210    2.9660    1.6480 hc        1 MOL      0.113918
    104 H45         0.8350    5.0770    2.4810 hc        1 MOL      0.077420
    105 H46         2.4060    4.4700    3.0460 hc        1 MOL      0.077420
    106 H47         1.5620    0.9390    3.3110 hc        1 MOL      0.169614
    107 H48         2.8100    2.1570    3.4040 hc        1 MOL      0.169614
    108 H49         1.5380    2.0600    4.5980 hc        1 MOL      0.169614
    109 H50        -0.1490    4.6480    4.8630 hc        1 MOL      0.003979
    110 H51         1.3400    4.0290    5.2920 hc        1 MOL      0.003979
    111 H52         1.2530    5.7600    4.8260 hc        1 MOL      0.003979
    112 N10        -1.8500    0.6950    3.2120 n         1 MOL     -0.084899
    113 C35        -2.3540   -0.7130    3.0930 c3        1 MOL     -0.016746
    114 C36        -3.8770   -0.8500    3.0910 c         1 MOL      0.395840
    115 O17        -4.4140   -1.8770    3.4510 o         1 MOL     -0.535087
    116 C37        -1.8190   -1.6180    4.1450 c3        1 MOL      0.474237
    117 C38        -2.0320   -1.1260    5.5750 c3        1 MOL     -0.315670
    118 O18        -0.4240   -1.7240    3.9240 oh        1 MOL     -0.699371
    119 H53        -2.1800    1.1550    4.0420 hn        1 MOL      0.161587
    120 H54        -2.0360   -1.1790    2.1700 h1        1 MOL      0.082604
    121 H55        -2.2970   -2.6020    4.0610 h1        1 MOL     -0.012470
    122 H56        -0.2980   -1.9960    3.0160 ho        1 MOL      0.433588
    123 H57        -1.5780   -1.8580    6.2410 hc        1 MOL      0.067339
    124 H58        -1.4800   -0.1890    5.6400 hc        1 MOL      0.067339
    125 H59        -3.0770   -1.1990    5.8870 hc        1 MOL      0.067339
    126 N11        -4.6010    0.2250    2.8180 n         1 MOL     -0.173829
    127 C39        -6.0960    0.1740    2.7500 c3        1 MOL     -0.009987
    128 C40        -6.5250   -0.3430    1.3640 c         1 MOL      0.464579
    129 O19        -6.9470    0.4520    0.5420 o         1 MOL     -0.520915
    130 C41        -6.7550    1.5010    3.2050 c3        1 MOL      0.466882
    131 C42        -8.2550    1.4070    3.4730 c3        1 MOL     -0.365245
    132 O20        -6.0190    1.9240    4.3270 oh        1 MOL     -0.658466
    133 H60        -4.1800    1.1480    2.8130 hn        1 MOL      0.161349
    134 H61        -6.3790   -0.5730    3.4930 h1        1 MOL      0.056505
    135 H62        -6.6410    2.2610    2.4300 h1        1 MOL     -0.055751
    136 H63        -6.5320    2.6530    4.6720 ho        1 MOL      0.400932
    137 H64        -8.8570    1.2910    2.5650 hc        1 MOL      0.089878
    138 H65        -8.4600    0.5670    4.1430 hc        1 MOL      0.089878
    139 H66        -8.6120    2.2970    3.9770 hc        1 MOL      0.089878
    140 N12        -6.4700   -1.6560    1.1550 n         1 MOL     -0.501952
    141 C43        -6.4030   -2.2710   -0.1570 c3        1 MOL      0.187158
    142 C44        -5.0650   -2.1220   -0.8060 c         1 MOL      0.570896
    143 O21        -4.4480   -1.0340   -0.7200 o         1 MOL     -0.510960
    144 C45        -7.6210   -1.8740   -1.1050 c3        1 MOL     -0.764951
    145 C46        -9.0410   -2.0780   -0.5890 c3        1 MOL      0.507194
    146 C47       -10.1450   -1.9380   -1.7350 c3        1 MOL     -0.185461
    147 C48       -11.5970   -1.6480   -1.3360 c3        1 MOL     -0.082335
    148 N13       -12.2520   -2.8230   -0.7040 n4        1 MOL     -0.249327
    149 H67        -6.2650   -2.2530    1.9330 hn        1 MOL      0.304663
    150 H68        -6.3960   -3.3390    0.0530 h1        1 MOL      0.037934
    151 H69        -7.4900   -2.4320   -2.0350 hc        1 MOL      0.220018
    152 H70        -7.6020   -0.8040   -1.2760 hc        1 MOL      0.220018
    153 H71        -9.2240   -1.4920    0.3070 hc        1 MOL     -0.070145
    154 H72        -9.1320   -3.1050   -0.2350 hc        1 MOL     -0.070145
    155 H73       -10.1670   -2.8530   -2.3320 hc        1 MOL      0.066762
    156 H74        -9.8420   -1.0980   -2.3590 hc        1 MOL      0.066762
    157 H75       -12.1730   -1.2890   -2.1910 hx        1 MOL      0.118368
    158 H76       -11.5590   -0.7720   -0.6870 hx        1 MOL      0.118368
    159 H77       -11.6270   -3.2770   -0.0470 hn        1 MOL      0.212128
    160 H78       -13.1590   -2.5220   -0.3510 hn        1 MOL      0.212128
    161 H79       -12.3580   -3.4450   -1.4920 hn        1 MOL      0.212128
    162 N14        -4.6830   -3.0980   -1.6440 n         1 MOL     -0.433659
    163 C49        -3.4730   -2.9640   -2.4760 c3        1 MOL      0.087185
    164 C50        -2.2210   -2.6710   -1.5400 c         1 MOL      0.308372
    165 O22        -1.5930   -1.6430   -1.7850 o         1 MOL     -0.531727
    166 C51        -3.1750   -4.1740   -3.3490 c3        1 MOL      0.331023
    167 C52        -4.3330   -4.3810   -4.2870 c3        1 MOL     -0.251496
    168 C53        -4.0840   -5.7300   -5.0230 c         1 MOL      0.669666
    169 O23        -4.2200   -6.8510   -4.4630 o         1 MOL     -0.638213
    170 O24        -3.6840   -5.7250   -6.2140 o         1 MOL     -0.638213
    171 H80        -5.2820   -3.9070   -1.7480 hn        1 MOL      0.319951
    172 H81        -3.4490   -2.1010   -3.1430 h1        1 MOL      0.045816
    173 H82        -3.1310   -5.0770   -2.7230 hc        1 MOL     -0.035240
    174 H83        -2.2520   -4.0830   -3.9230 hc        1 MOL     -0.035240
    175 H84        -4.4010   -3.5770   -5.0100 hc        1 MOL     -0.012891
    176 H85        -5.2330   -4.4490   -3.6830 hc        1 MOL     -0.012891
    177 N15        -1.8860   -3.4770   -0.5200 n         1 MOL     -0.268828
    178 C54        -2.5580   -4.6790    0.0260 c3        1 MOL     -0.056629
    179 H86        -2.2230   -5.5620   -0.5190 h1        1 MOL      0.042241
    180 H87        -2.3070   -4.7880    1.0810 h1        1 MOL      0.042241
    181 H88        -3.6370   -4.5740   -0.0830 h1        1 MOL      0.042241
    182 H89        -1.1020   -3.1210    0.0120 hn        1 MOL      0.296944
    183 Ca1        -0.4370    0.6970   -1.0970 Ca        1 MOL      1.850134
    184 O25        -3.0550    1.0780   -0.1630 oh        1 MOL     -0.937540
    185 H90        -3.7690    0.4910   -0.4220 ho        1 MOL      0.443180
    186 H91        -3.3820    1.9560   -0.3320 ho        1 MOL      0.443180
    187 O26         1.2880   -0.2920   -3.0830 oh        1 MOL     -0.937540
    188 H92         2.1160   -0.5240   -2.6570 ho        1 MOL      0.443180
    189 H93         1.5140    0.4130   -3.6870 ho        1 MOL      0.443180
    190 O27        -2.2920    0.8390   -3.0360 oh        1 MOL     -0.937540
    191 H94        -1.9310    0.2440   -3.6860 ho        1 MOL      0.443180
    192 H95        -3.2260    0.8680   -3.2360 ho        1 MOL      0.443180
@<TRIPOS>BOND
     1    1    2 1   
     2    1    4 1   
     3    1    5 1   
     4    1    6 1   
     5    2    3 2   
     6    2    7 1   
     7    7    8 1   
     8    7   15 1   
     9    8    9 1   
    10    8   11 1   
    11    8   16 1   
    12    9   10 2   
    13    9   19 1   
    14   11   12 1   
    15   11   17 1   
    16   11   18 1   
    17   12   13 1   
    18   12   14 1   
    19   19   20 1   
    20   19   28 1   
    21   20   21 1   
    22   20   23 1   
    23   20   29 1   
    24   21   22 2   
    25   21   41 1   
    26   23   24 1   
    27   23   30 1   
    28   23   31 1   
    29   24   25 1   
    30   24   32 1   
    31   24   33 1   
    32   25   26 1   
    33   25   34 1   
    34   25   35 1   
    35   26   27 1   
    36   26   36 1   
    37   26   37 1   
    38   27   38 1   
    39   27   39 1   
    40   27   40 1   
    41   41   42 1   
    42   41   49 1   
    43   42   43 1   
    44   42   45 1   
    45   42   50 1   
    46   43   44 2   
    47   43   53 1   
    48   45   46 1   
    49   45   51 1   
    50   45   52 1   
    51   46   47 1   
    52   46   48 1   
    53   53   54 1   
    54   53   57 1   
    55   54   55 1   
    56   54   58 1   
    57   54   59 1   
    58   55   56 2   
    59   55   60 1   
    60   60   61 1   
    61   60   68 1   
    62   61   62 1   
    63   61   64 1   
    64   61   69 1   
    65   62   63 2   
    66   62   72 1   
    67   64   65 1   
    68   64   70 1   
    69   64   71 1   
    70   65   66 1   
    71   65   67 1   
    72   72   73 1   
    73   72   76 1   
    74   73   74 1   
    75   73   77 1   
    76   73   78 1   
    77   74   75 2   
    78   74   79 1   
    79   79   80 1   
    80   79   86 1   
    81   80   81 1   
    82   80   83 1   
    83   80   87 1   
    84   81   82 2   
    85   81   93 1   
    86   83   84 1   
    87   83   85 1   
    88   83   88 1   
    89   84   90 1   
    90   84   91 1   
    91   84   92 1   
    92   85   89 1   
    93   93   94 1   
    94   93  101 1   
    95   94   95 1   
    96   94   97 1   
    97   94  102 1   
    98   95   96 2   
    99   95  112 1   
   100   97   98 1   
   101   97   99 1   
   102   97  103 1   
   103   98  100 1   
   104   98  104 1   
   105   98  105 1   
   106   99  106 1   
   107   99  107 1   
   108   99  108 1   
   109  100  109 1   
   110  100  110 1   
   111  100  111 1   
   112  112  113 1   
   113  112  119 1   
   114  113  114 1   
   115  113  116 1   
   116  113  120 1   
   117  114  115 2   
   118  114  126 1   
   119  116  117 1   
   120  116  118 1   
   121  116  121 1   
   122  117  123 1   
   123  117  124 1   
   124  117  125 1   
   125  118  122 1   
   126  126  127 1   
   127  126  133 1   
   128  127  128 1   
   129  127  130 1   
   130  127  134 1   
   131  128  129 2   
   132  128  140 1   
   133  130  131 1   
   134  130  132 1   
   135  130  135 1   
   136  131  137 1   
   137  131  138 1   
   138  131  139 1   
   139  132  136 1   
   140  140  141 1   
   141  140  149 1   
   142  141  142 1   
   143  141  144 1   
   144  141  150 1   
   145  142  143 2   
   146  142  162 1   
   147  144  145 1   
   148  144  151 1   
   149  144  152 1   
   150  145  146 1   
   151  145  153 1   
   152  145  154 1   
   153  146  147 1   
   154  146  155 1   
   155  146  156 1   
   156  147  148 1   
   157  147  157 1   
   158  147  158 1   
   159  148  159 1   
   160  148  160 1   
   161  148  161 1   
   162  162  163 1   
   163  162  171 1   
   164  163  164 1   
   165  163  166 1   
   166  163  172 1   
   167  164  165 2   
   168  164  177 1   
   169  166  167 1   
   170  166  173 1   
   171  166  174 1   
   172  167  168 1   
   173  167  175 1   
   174  167  176 1   
   175  168  169 1   
   176  168  170 1   
   177  177  178 1   
   178  177  182 1   
   179  178  179 1   
   180  178  180 1   
   181  178  181 1   
   182  184  185 1   
   183  184  186 1   
   184  187  188 1   
   185  187  189 1   
   186  190  191 1   
   187  190  192 1   
@<TRIPOS>SUBSTRUCTURE
     1 MOL         1 TEMP              0 ****  ****    0 ROOT
