@<TRIPOS>MOLECULE
MOL
  181   177     1     0     0
SMALL
resp


@<TRIPOS>ATOM
      1 C1         -2.8450   -1.2200   -4.6430 c3        1 MOL     -0.302862
      2 C2         -3.6140   -0.7350   -3.4040 c         1 MOL      0.546021
      3 O1         -3.3500   -1.2480   -2.3400 o         1 MOL     -0.432879
      4 H1         -2.7160   -0.3900   -5.3380 hc        1 MOL      0.077347
      5 H2         -1.8670   -1.5960   -4.3420 hc        1 MOL      0.077347
      6 H3         -3.4070   -2.0160   -5.1310 hc        1 MOL      0.077347
      7 N1         -4.5090    0.2520   -3.5500 n         1 MOL     -0.452238
      8 C3         -5.3410    0.7850   -2.4690 c3        1 MOL      0.127323
      9 C4         -6.0920   -0.3520   -1.6550 c         1 MOL      0.415138
     10 O2         -5.9490   -0.4140   -0.4030 o         1 MOL     -0.481921
     11 C5         -6.4350    1.7630   -3.0010 c3        1 MOL     -0.209005
     12 C6         -7.1620    2.4770   -1.8500 c         1 MOL      0.749148
     13 O3         -8.4360    2.5740   -1.9110 o         1 MOL     -0.726743
     14 O4         -6.5230    3.1040   -0.9270 o         1 MOL     -0.726743
     15 H4         -4.7690    0.5080   -4.4870 hn        1 MOL      0.269055
     16 H5         -4.7010    1.4090   -1.8450 h1        1 MOL      0.041355
     17 H6         -7.1390    1.2460   -3.6460 hc        1 MOL      0.004581
     18 H7         -5.9430    2.5650   -3.5510 hc        1 MOL      0.004581
     19 N2         -6.7140   -1.2970   -2.3930 n         1 MOL     -0.371947
     20 C7         -7.2710   -2.5260   -1.8650 c3        1 MOL      0.125358
     21 C8         -6.3500   -3.5000   -1.1270 c         1 MOL      0.283533
     22 O5         -6.9080   -4.5060   -0.5680 o         1 MOL     -0.496943
     23 C9         -8.4880   -2.1080   -1.0650 c3        1 MOL     -0.211190
     24 H8         -6.7700   -1.0850   -3.3770 hn        1 MOL      0.250547
     25 H9         -7.6310   -3.1100   -2.7060 h1        1 MOL      0.061481
     26 H10        -9.2270   -1.6320   -1.6980 hc        1 MOL      0.065329
     27 H11        -9.0230   -2.9810   -0.6890 hc        1 MOL      0.065329
     28 H12        -8.2690   -1.5110   -0.1690 hc        1 MOL      0.065329
     29 N3         -5.0470   -3.2820   -1.0840 n         1 MOL     -0.308180
     30 C10        -4.1450   -3.9030   -0.0400 c3        1 MOL      0.239761
     31 C11        -4.6080   -3.5230    1.4450 c         1 MOL      0.321481
     32 O6         -4.6260   -4.4000    2.3620 o         1 MOL     -0.436624
     33 C12        -3.9460   -5.4400   -0.3090 c3        1 MOL     -0.191112
     34 C13        -2.9700   -6.0100    0.6900 c         1 MOL      0.512021
     35 O7         -2.0010   -5.2700    1.1080 o         1 MOL     -0.641934
     36 O8         -3.2730   -7.0970    1.2190 o         1 MOL     -0.641934
     37 H13        -4.5690   -2.5790   -1.6370 hn        1 MOL      0.197121
     38 H14        -3.1940   -3.3770   -0.1670 h1        1 MOL     -0.049264
     39 H15        -3.5590   -5.5380   -1.3220 hc        1 MOL      0.064401
     40 H16        -4.9280   -5.8940   -0.2400 hc        1 MOL      0.064401
     41 N4         -4.9500   -2.2540    1.6930 n         1 MOL     -0.087227
     42 C14        -5.3810   -1.7700    3.0390 c3        1 MOL     -0.242800
     43 C15        -4.4640   -0.7350    3.8300 c         1 MOL      0.548585
     44 O9         -4.6850   -0.5200    5.0060 o         1 MOL     -0.557767
     45 H17        -4.8670   -1.5270    0.9930 hn        1 MOL      0.206703
     46 H18        -5.4900   -2.6640    3.6580 h1        1 MOL      0.112326
     47 H19        -6.3640   -1.3260    2.9050 h1        1 MOL      0.112326
     48 N5         -3.5720   -0.0510    3.1380 n         1 MOL     -0.266499
     49 C16        -2.9920    1.1900    3.6950 c3        1 MOL      0.088468
     50 C17        -3.5230    2.3550    2.8240 c         1 MOL      0.471709
     51 O10        -3.6850    2.3020    1.6370 o         1 MOL     -0.423327
     52 C18        -1.4700    1.1020    3.5080 c3        1 MOL     -0.297311
     53 C19        -0.8900   -0.0040    4.4060 c         1 MOL      0.511276
     54 N6         -0.6620    0.2580    5.6980 n         1 MOL     -0.681089
     55 O11        -0.7640   -1.1750    4.0820 o         1 MOL     -0.475168
     56 H20        -3.4230   -0.2520    2.1660 hn        1 MOL      0.169543
     57 H21        -3.3930    1.4020    4.6820 h1        1 MOL      0.035309
     58 H22        -1.0930    2.0900    3.7340 hc        1 MOL      0.125119
     59 H23        -1.2730    0.8900    2.4650 hc        1 MOL      0.125119
     60 H24        -0.7680    1.2150    6.0040 hn        1 MOL      0.340882
     61 H25        -0.2630   -0.5410    6.1700 hn        1 MOL      0.340882
     62 N7         -3.8980    3.4480    3.4720 n         1 MOL     -0.346304
     63 C20        -4.0750    4.7280    2.7780 c3        1 MOL     -0.359114
     64 C21        -2.7650    5.3780    2.3040 c         1 MOL      0.714354
     65 O12        -1.7180    5.2060    2.9790 o         1 MOL     -0.568024
     66 H26        -3.8700    3.4560    4.4740 hn        1 MOL      0.274957
     67 H27        -4.6220    5.4090    3.4200 h1        1 MOL      0.173487
     68 H28        -4.6600    4.4700    1.8930 h1        1 MOL      0.173487
     69 N8         -2.7110    6.0700    1.1820 n         1 MOL     -0.627405
     70 C22        -1.5960    6.8950    0.7450 c3        1 MOL     -0.003904
     71 C23        -0.4090    6.1650    0.0870 c         1 MOL      0.516924
     72 O13         0.7120    6.6720    0.0300 o         1 MOL     -0.544278
     73 C24        -2.1550    7.9840   -0.1860 c3        1 MOL      0.240721
     74 C25        -1.2050    8.7290   -1.0960 c3        1 MOL     -0.312754
     75 O14        -3.0640    7.3730   -1.0730 oh        1 MOL     -0.562406
     76 H29        -3.4210    5.9510    0.4750 hn        1 MOL      0.321635
     77 H30        -1.0740    7.4230    1.5440 h1        1 MOL      0.095448
     78 H31        -2.7520    8.7330    0.3250 h1        1 MOL      0.026233
     79 H32        -3.9060    7.7080   -0.7490 ho        1 MOL      0.387324
     80 H33        -0.9700    8.1620   -2.0030 hc        1 MOL      0.086469
     81 H34        -1.6410    9.6640   -1.4470 hc        1 MOL      0.086469
     82 H35        -0.2470    8.9130   -0.6230 hc        1 MOL      0.086469
     83 N9         -0.7250    4.9310   -0.4480 n         1 MOL     -0.246573
     84 C26         0.2270    4.0740   -1.1640 c3        1 MOL     -0.234965
     85 C27         0.2760    2.6680   -0.5080 c         1 MOL      0.583577
     86 O15        -0.7780    2.1680   -0.0640 o         1 MOL     -0.514237
     87 C28        -0.1790    4.1210   -2.6750 c3        1 MOL      0.331494
     88 C29        -1.6160    3.7970   -3.0410 c3        1 MOL      0.024613
     89 C30         0.3820    5.3860   -3.2980 c3        1 MOL     -0.577296
     90 C31        -1.7220    3.7240   -4.5890 c3        1 MOL     -0.239529
     91 H36        -1.7110    4.7290   -0.4850 hn        1 MOL      0.234568
     92 H37         1.2350    4.4530   -1.0230 h1        1 MOL      0.107919
     93 H38         0.3610    3.2890   -3.1060 hc        1 MOL     -0.048058
     94 H39        -2.2590    4.5790   -2.6290 hc        1 MOL      0.055714
     95 H40        -1.7570    2.8290   -2.5650 hc        1 MOL      0.055714
     96 H41        -0.1420    6.1960   -2.7780 hc        1 MOL      0.141505
     97 H42         1.4380    5.5900   -3.1210 hc        1 MOL      0.141505
     98 H43         0.0200    5.4490   -4.3180 hc        1 MOL      0.141505
     99 H44        -2.6120    3.1780   -4.9250 hc        1 MOL      0.052691
    100 H45        -1.7780    4.7010   -5.0870 hc        1 MOL      0.052691
    101 H46        -0.8630    3.1740   -4.9720 hc        1 MOL      0.052691
    102 N10         1.4490    2.1350   -0.5760 n         1 MOL     -0.479419
    103 C32         1.8420    0.8870   -0.0960 c3        1 MOL      0.076647
    104 C33         3.3420    0.6490    0.2170 c         1 MOL      0.457994
    105 O16         3.8680   -0.4710    0.1090 o         1 MOL     -0.393092
    106 C34         1.3690   -0.2400   -1.1330 c3        1 MOL     -0.038647
    107 C35         1.1560   -1.6140   -0.4790 c         1 MOL      0.717489
    108 O17         0.6190   -2.5470   -1.1050 o         1 MOL     -0.778652
    109 O18         1.3540   -1.7330    0.7230 o         1 MOL     -0.778652
    110 H47         2.2350    2.6480   -0.9350 hn        1 MOL      0.264754
    111 H48         1.2340    0.6970    0.7930 h1        1 MOL      0.062534
    112 H49         2.1260   -0.3570   -1.9170 hc        1 MOL      0.032072
    113 H50         0.5210    0.1270   -1.6960 hc        1 MOL      0.032072
    114 N11         4.0560    1.7460    0.4200 n         1 MOL     -0.499025
    115 C36         5.4120    1.6470    0.8260 c3        1 MOL      0.317367
    116 C37         6.3780    0.9930   -0.3040 c         1 MOL      0.272406
    117 O19         6.3990    1.4950   -1.4110 o         1 MOL     -0.484535
    118 C38         5.9450    3.0240    1.3490 c3        1 MOL     -0.296546
    119 C39         7.4180    2.9320    1.8580 ca        1 MOL      0.103007
    120 C40         7.6970    2.1990    3.0670 ca        1 MOL     -0.150061
    121 C41         8.4990    3.6490    1.2280 ca        1 MOL     -0.150061
    122 C42         8.9530    1.9880    3.5320 ca        1 MOL     -0.122521
    123 C43         9.7920    3.4340    1.7570 ca        1 MOL     -0.122521
    124 C44        10.0580    2.6530    2.8620 ca        1 MOL     -0.120714
    125 H51         3.6280    2.6580    0.3940 hn        1 MOL      0.288074
    126 H52         5.4720    0.9800    1.6840 h1        1 MOL     -0.010168
    127 H53         5.2160    3.3830    2.0780 hc        1 MOL      0.102752
    128 H54         5.9620    3.7010    0.4980 hc        1 MOL      0.102752
    129 H55         6.8640    1.7430    3.5890 ha        1 MOL      0.129235
    130 H56         8.3900    4.3460    0.4150 ha        1 MOL      0.129235
    131 H57         9.1150    1.3530    4.3950 ha        1 MOL      0.111598
    132 H58        10.6490    3.7970    1.2050 ha        1 MOL      0.111598
    133 H59        11.0980    2.5010    3.0880 ha        1 MOL      0.108824
    134 N12         7.0870   -0.1220   -0.0170 n         1 MOL     -0.053117
    135 C45         7.9300   -0.7330   -1.1050 c3        1 MOL      0.094739
    136 C46         7.0650   -1.4800   -2.1750 c         1 MOL      0.371207
    137 O20         7.4780   -1.6130   -3.3380 o         1 MOL     -0.554467
    138 C47         8.9370   -1.7420   -0.3490 c3        1 MOL     -0.213379
    139 C48         8.0960   -2.0910    0.8160 c3        1 MOL      0.121140
    140 C49         7.2640   -0.8550    1.2470 c3        1 MOL     -0.172099
    141 H60         8.4380    0.0270   -1.7150 h1        1 MOL      0.044104
    142 H61         9.2110   -2.5800   -0.9860 hc        1 MOL      0.076686
    143 H62         9.8170   -1.1690   -0.0480 hc        1 MOL      0.076686
    144 H63         7.4540   -2.9580    0.6290 hc        1 MOL      0.000657
    145 H64         8.6830   -2.4020    1.6820 hc        1 MOL      0.000657
    146 H65         6.3150   -1.1810    1.6570 h1        1 MOL      0.075004
    147 H66         7.7960   -0.2050    1.9410 h1        1 MOL      0.075004
    148 N13         5.9640   -2.0290   -1.7960 n         1 MOL     -0.232842
    149 C50         5.0480   -2.7390   -2.7490 c3        1 MOL     -0.108986
    150 C51         4.3750   -1.8980   -3.7970 c         1 MOL      0.404310
    151 O21         3.8350   -2.3540   -4.8170 o         1 MOL     -0.531816
    152 C52         4.0090   -3.5770   -1.9590 c3        1 MOL      0.118559
    153 C53         4.4910   -4.7500   -1.0320 c3        1 MOL     -0.362806
    154 C54         3.3900   -5.5280   -0.3160 c         1 MOL      0.750898
    155 O22         3.0760   -6.7120   -0.5930 o         1 MOL     -0.708860
    156 O23         2.8270   -4.9060    0.6200 o         1 MOL     -0.708860
    157 H67         5.6510   -1.8600   -0.8540 hn        1 MOL      0.259130
    158 H68         5.6690   -3.4440   -3.2980 h1        1 MOL      0.126629
    159 H69         3.3920   -4.0720   -2.7060 hc        1 MOL      0.012563
    160 H70         3.4000   -2.8730   -1.3880 hc        1 MOL      0.012563
    161 H71         5.1220   -4.3510   -0.2350 hc        1 MOL      0.066399
    162 H72         5.0530   -5.4260   -1.6830 hc        1 MOL      0.066399
    163 N14         4.4350   -0.5640   -3.6070 n         1 MOL     -0.049845
    164 C55         3.9650    0.4370   -4.5110 c3        1 MOL     -0.177639
    165 H73         3.8150   -0.0050   -5.4960 h1        1 MOL      0.070168
    166 H74         3.0210    0.8410   -4.1470 h1        1 MOL      0.070168
    167 H75         4.7010    1.2370   -4.5820 h1        1 MOL      0.070168
    168 H76         4.8820   -0.2590   -2.7520 hn        1 MOL      0.146948
    169 Ca1         0.3010   -4.2830    0.9190 Ca        1 MOL      1.746153
    170 O24         0.5510   -6.0120   -1.1410 oh        1 MOL     -0.860539
    171 H77         0.3980   -6.1150   -2.0810 ho        1 MOL      0.413494
    172 H78         1.4210   -6.3740   -0.9960 ho        1 MOL      0.413494
    173 O25        -1.4420   -2.4250    1.6840 oh        1 MOL     -0.860539
    174 H79        -1.2890   -2.0050    2.5340 ho        1 MOL      0.413494
    175 H80        -1.8310   -1.7360    1.1470 ho        1 MOL      0.413494
    176 O26         0.7940   -3.4630    3.4500 oh        1 MOL     -0.860539
    177 H81         0.2210   -3.6370    4.2020 ho        1 MOL      0.413494
    178 H82         0.9770   -2.5240    3.5060 ho        1 MOL      0.413494
    179 O27         0.5420   -6.8580    2.0070 oh        1 MOL     -0.860539
    180 H83         0.1120   -7.0010    2.8480 ho        1 MOL      0.413494
    181 H84         1.0160   -7.6740    1.8430 ho        1 MOL      0.413494
@<TRIPOS>BOND
     1    1    2 1   
     2    1    4 1   
     3    1    5 1   
     4    1    6 1   
     5    2    3 2   
     6    2    7 1   
     7    7    8 1   
     8    7   15 1   
     9    8    9 1   
    10    8   11 1   
    11    8   16 1   
    12    9   10 2   
    13    9   19 1   
    14   11   12 1   
    15   11   17 1   
    16   11   18 1   
    17   12   13 1   
    18   12   14 1   
    19   19   20 1   
    20   19   24 1   
    21   20   21 1   
    22   20   23 1   
    23   20   25 1   
    24   21   22 2   
    25   21   29 1   
    26   23   26 1   
    27   23   27 1   
    28   23   28 1   
    29   29   30 1   
    30   29   37 1   
    31   30   31 1   
    32   30   33 1   
    33   30   38 1   
    34   31   32 2   
    35   31   41 1   
    36   33   34 1   
    37   33   39 1   
    38   33   40 1   
    39   34   35 1   
    40   34   36 1   
    41   41   42 1   
    42   41   45 1   
    43   42   43 1   
    44   42   46 1   
    45   42   47 1   
    46   43   44 2   
    47   43   48 1   
    48   48   49 1   
    49   48   56 1   
    50   49   50 1   
    51   49   52 1   
    52   49   57 1   
    53   50   51 2   
    54   50   62 1   
    55   52   53 1   
    56   52   58 1   
    57   52   59 1   
    58   53   54 1   
    59   53   55 2   
    60   54   60 1   
    61   54   61 1   
    62   62   63 1   
    63   62   66 1   
    64   63   64 1   
    65   63   67 1   
    66   63   68 1   
    67   64   65 2   
    68   64   69 1   
    69   69   70 1   
    70   69   76 1   
    71   70   71 1   
    72   70   73 1   
    73   70   77 1   
    74   71   72 2   
    75   71   83 1   
    76   73   74 1   
    77   73   75 1   
    78   73   78 1   
    79   74   80 1   
    80   74   81 1   
    81   74   82 1   
    82   75   79 1   
    83   83   84 1   
    84   83   91 1   
    85   84   85 1   
    86   84   87 1   
    87   84   92 1   
    88   85   86 2   
    89   85  102 1   
    90   87   88 1   
    91   87   89 1   
    92   87   93 1   
    93   88   90 1   
    94   88   94 1   
    95   88   95 1   
    96   89   96 1   
    97   89   97 1   
    98   89   98 1   
    99   90   99 1   
   100   90  100 1   
   101   90  101 1   
   102  102  103 1   
   103  102  110 1   
   104  103  104 1   
   105  103  106 1   
   106  103  111 1   
   107  104  105 2   
   108  104  114 1   
   109  106  107 1   
   110  106  112 1   
   111  106  113 1   
   112  107  108 1   
   113  107  109 1   
   114  114  115 1   
   115  114  125 1   
   116  115  116 1   
   117  115  118 1   
   118  115  126 1   
   119  116  117 2   
   120  116  134 1   
   121  118  119 1   
   122  118  127 1   
   123  118  128 1   
   124  119  120 ar  
   125  119  121 ar  
   126  120  122 ar  
   127  120  129 1   
   128  121  123 ar  
   129  121  130 1   
   130  122  124 ar  
   131  122  131 1   
   132  123  124 ar  
   133  123  132 1   
   134  124  133 1   
   135  134  135 1   
   136  134  140 1   
   137  135  136 1   
   138  135  138 1   
   139  135  141 1   
   140  136  137 2   
   141  136  148 1   
   142  138  139 1   
   143  138  142 1   
   144  138  143 1   
   145  139  140 1   
   146  139  144 1   
   147  139  145 1   
   148  140  146 1   
   149  140  147 1   
   150  148  149 1   
   151  148  157 1   
   152  149  150 1   
   153  149  152 1   
   154  149  158 1   
   155  150  151 2   
   156  150  163 1   
   157  152  153 1   
   158  152  159 1   
   159  152  160 1   
   160  153  154 1   
   161  153  161 1   
   162  153  162 1   
   163  154  155 1   
   164  154  156 1   
   165  163  164 1   
   166  163  168 1   
   167  164  165 1   
   168  164  166 1   
   169  164  167 1   
   170  170  171 1   
   171  170  172 1   
   172  173  174 1   
   173  173  175 1   
   174  176  177 1   
   175  176  178 1   
   176  179  180 1   
   177  179  181 1   
@<TRIPOS>SUBSTRUCTURE
     1 MOL         1 TEMP              0 ****  ****    0 ROOT
