@<TRIPOS>MOLECULE
MOL
  186   183     1     0     0
SMALL
resp


@<TRIPOS>ATOM
      1 C1        -11.4350    3.6410    5.0370 c3        1 MOL     -0.880647
      2 C2        -11.5090    2.5760    3.8360 c         1 MOL      0.800359
      3 O1        -11.7450    1.3760    3.9060 o         1 MOL     -0.606751
      4 H1        -10.5100    3.4940    5.5950 hc        1 MOL      0.232515
      5 H2        -11.4570    4.6510    4.6290 hc        1 MOL      0.232515
      6 H3        -12.2870    3.4980    5.7020 hc        1 MOL      0.232515
      7 N1        -11.4450    3.1760    2.6350 n         1 MOL     -0.016928
      8 C3        -11.6130    2.5330    1.3040 c3        1 MOL     -0.853796
      9 C4        -10.3310    1.7540    0.9560 c         1 MOL      0.931147
     10 O2         -9.1820    2.2260    1.1190 o         1 MOL     -0.843879
     11 C5        -11.8680    3.5660    0.1710 c3        1 MOL      0.507428
     12 C6        -11.0340    4.8610    0.1520 c         1 MOL      0.604394
     13 O3        -10.2210    5.1440    1.0510 o         1 MOL     -0.680322
     14 O4        -11.3440    5.7470   -0.6490 o         1 MOL     -0.680322
     15 H4        -11.1040    4.1250    2.6320 hn        1 MOL      0.021881
     16 H5        -12.4540    1.8320    1.3230 h1        1 MOL      0.200661
     17 H6        -12.8840    3.9590    0.2480 hc        1 MOL     -0.048736
     18 H7        -11.8710    3.0100   -0.7720 hc        1 MOL     -0.048736
     19 N2        -10.4710    0.4610    0.5580 n         1 MOL     -0.367957
     20 C7         -9.4980   -0.6510    0.4290 c3        1 MOL      0.008104
     21 C8         -8.2210   -0.4800   -0.3630 c         1 MOL      0.467470
     22 O5         -7.5590   -1.4170   -0.6240 o         1 MOL     -0.550207
     23 C9        -10.4020   -1.8300   -0.1240 c3        1 MOL     -0.442250
     24 C10       -10.6010   -1.9630   -1.6470 c3        1 MOL      0.143224
     25 C11       -10.9020   -3.3750   -2.1260 c3        1 MOL      0.097637
     26 C12       -10.8870   -3.4190   -3.6310 c3        1 MOL      0.012599
     27 N3        -10.8850   -4.7880   -4.1780 n4        1 MOL     -0.400461
     28 H8        -11.4520    0.2280    0.4770 hn        1 MOL      0.272671
     29 H9         -9.1500   -0.9850    1.4040 h1        1 MOL      0.133661
     30 H10       -11.3820   -1.9850    0.3300 hc        1 MOL      0.130824
     31 H11        -9.8780   -2.7720    0.0610 hc        1 MOL      0.130824
     32 H12        -9.7940   -1.4560   -2.1740 hc        1 MOL     -0.024463
     33 H13       -11.4750   -1.3450   -1.8510 hc        1 MOL     -0.024463
     34 H14       -11.8990   -3.7310   -1.8360 hc        1 MOL      0.001543
     35 H15       -10.1350   -3.9930   -1.6800 hc        1 MOL      0.001543
     36 H16        -9.8710   -3.0840   -3.8200 hx        1 MOL      0.086558
     37 H17       -11.6680   -2.8590   -4.1430 hx        1 MOL      0.086558
     38 H18       -11.6220   -5.4130   -3.9030 hn        1 MOL      0.305198
     39 H19       -11.0780   -4.6350   -5.1510 hn        1 MOL      0.305198
     40 H20        -9.9580   -5.1530   -3.9960 hn        1 MOL      0.305198
     41 N4         -7.8610    0.6690   -0.8370 n         1 MOL      0.352500
     42 C13        -6.5820    0.8800   -1.4920 c3        1 MOL     -0.555481
     43 C14        -5.6310    1.4640   -0.4700 c         1 MOL      0.668549
     44 O6         -6.0460    2.1590    0.4600 o         1 MOL     -0.683777
     45 C15        -6.9000    1.7440   -2.7410 c3        1 MOL     -0.279040
     46 C16        -7.8850    2.8970   -2.5640 c         1 MOL      0.581045
     47 O7         -8.4960    3.3260   -3.5970 o         1 MOL     -0.620072
     48 O8         -7.9940    3.4060   -1.3970 o         1 MOL     -0.620072
     49 H21        -8.4070    1.4750   -0.5810 hn        1 MOL     -0.093996
     50 H22        -6.1270   -0.0620   -1.7990 h1        1 MOL      0.233026
     51 H23        -7.2790    1.1210   -3.5550 hc        1 MOL      0.138183
     52 H24        -5.9840    2.2960   -2.9670 hc        1 MOL      0.138183
     53 N5         -4.3230    1.3610   -0.6690 n         1 MOL     -0.505710
     54 C17        -3.6520    0.5190   -1.7040 c3        1 MOL      0.113410
     55 C18        -3.6540   -1.0090   -1.3520 c         1 MOL      0.752537
     56 O9         -3.9950   -1.3390   -0.2460 o         1 MOL     -0.580449
     57 H25        -3.6760    1.7360    0.0160 hn        1 MOL      0.315936
     58 H26        -2.5820    0.6830   -1.8270 h1        1 MOL      0.033976
     59 H27        -4.1250    0.7040   -2.6700 h1        1 MOL      0.033976
     60 N6         -3.2210   -1.8410   -2.2920 n         1 MOL     -0.782725
     61 C19        -3.4310   -3.2740   -2.1560 c3        1 MOL      0.435022
     62 C20        -2.2270   -4.1170   -1.5890 c         1 MOL      0.457456
     63 O10        -1.1050   -3.7220   -1.7800 o         1 MOL     -0.440485
     64 C21        -3.8430   -3.9340   -3.4960 c3        1 MOL     -0.339864
     65 C22        -3.1490   -3.4670   -4.7840 c         1 MOL      0.764583
     66 O11        -2.0220   -2.8830   -4.7880 o         1 MOL     -0.674167
     67 O12        -3.7210   -3.6360   -5.8800 o         1 MOL     -0.674167
     68 H28        -2.9910   -1.4470   -3.1850 hn        1 MOL      0.358306
     69 H29        -4.2700   -3.3880   -1.4790 h1        1 MOL     -0.060708
     70 H30        -4.8950   -3.6640   -3.5510 hc        1 MOL      0.044266
     71 H31        -3.7540   -5.0160   -3.4600 hc        1 MOL      0.044266
     72 N7         -2.5010   -5.2990   -0.9560 n         1 MOL     -0.362419
     73 C23        -1.4380   -6.3480   -0.6370 c3        1 MOL     -0.285730
     74 C24        -0.4000   -6.0050    0.3820 c         1 MOL      0.601019
     75 O13         0.5580   -6.6990    0.5730 o         1 MOL     -0.562025
     76 H32        -3.4650   -5.5670   -0.8460 hn        1 MOL      0.235170
     77 H33        -1.0940   -6.6840   -1.6160 h1        1 MOL      0.158783
     78 H34        -2.0310   -7.1640   -0.2280 h1        1 MOL      0.158783
     79 N8         -0.6100   -4.9330    1.1510 n         1 MOL     -0.381973
     80 C25         0.4740   -4.3880    1.9860 c3        1 MOL      0.060710
     81 C26         0.8000   -2.9030    1.6030 c         1 MOL      0.579452
     82 O14        -0.0560   -2.1240    1.1490 o         1 MOL     -0.516680
     83 C27         0.2200   -4.4080    3.5300 c3        1 MOL      0.370859
     84 C28        -1.0480   -3.6900    4.0830 c3        1 MOL     -0.296937
     85 O15         0.0130   -5.7580    3.8780 oh        1 MOL     -0.609328
     86 H35        -1.4170   -4.3330    1.0500 hn        1 MOL      0.213900
     87 H36         1.3980   -4.9320    1.7800 h1        1 MOL      0.041079
     88 H37         1.1090   -4.0790    4.0420 h1        1 MOL     -0.039944
     89 H38         0.8140   -6.1830    3.5580 ho        1 MOL      0.361951
     90 H39        -1.9260   -4.1540    3.6260 hc        1 MOL      0.090409
     91 H40        -1.0040   -3.8130    5.1650 hc        1 MOL      0.090409
     92 H41        -0.9710   -2.6630    3.7410 hc        1 MOL      0.090409
     93 N9          2.0740   -2.4830    1.8140 n         1 MOL     -0.516509
     94 C29         2.5600   -1.1820    1.4410 c3        1 MOL     -0.114985
     95 C30         3.8600   -1.3130    0.5780 c         1 MOL      0.643736
     96 O16         4.0160   -0.6670   -0.4320 o         1 MOL     -0.520350
     97 C31         2.5280   -0.2080    2.6660 c3        1 MOL      0.135161
     98 C32         1.3250   -0.3580    3.6460 c3        1 MOL      0.113086
     99 C33         2.7250    1.1800    2.0890 c3        1 MOL     -0.293873
    100 C34         1.6420    0.3190    4.9550 c3        1 MOL     -0.188533
    101 H42         2.6790   -3.1740    2.2480 hn        1 MOL      0.245199
    102 H43         1.8770   -0.7530    0.7170 h1        1 MOL      0.137831
    103 H44         3.4260   -0.4510    3.2240 hc        1 MOL     -0.009853
    104 H45         1.1220   -1.4100    3.8710 hc        1 MOL     -0.009752
    105 H46         0.4470    0.1280    3.2190 hc        1 MOL     -0.009752
    106 H47         1.8050    1.3220    1.5320 hc        1 MOL      0.082359
    107 H48         2.8430    1.9050    2.8940 hc        1 MOL      0.082359
    108 H49         3.5740    1.2670    1.4190 hc        1 MOL      0.082359
    109 H50         0.8610   -0.0500    5.6240 hc        1 MOL      0.036598
    110 H51         2.6340   -0.0310    5.2300 hc        1 MOL      0.036598
    111 H52         1.6610    1.4040    4.8800 hc        1 MOL      0.036598
    112 N10         4.7030   -2.2540    1.0270 n         1 MOL     -0.477377
    113 C35         5.9630   -2.5200    0.4000 c3        1 MOL     -0.004610
    114 C36         7.0810   -2.2250    1.4430 c         1 MOL      0.498832
    115 O17         6.9630   -2.4410    2.6700 o         1 MOL     -0.541192
    116 C37         5.9850   -3.9440   -0.0380 c3        1 MOL      0.397408
    117 C38         5.0860   -4.2000   -1.2170 c3        1 MOL     -0.339865
    118 O18         7.2930   -4.2730   -0.5020 oh        1 MOL     -0.663585
    119 H53         4.5160   -2.6880    1.9180 hn        1 MOL      0.269381
    120 H54         6.0360   -1.8750   -0.4760 h1        1 MOL      0.122107
    121 H55         5.7610   -4.5790    0.8200 h1        1 MOL     -0.011580
    122 H56         7.2400   -5.2210   -0.6370 ho        1 MOL      0.391453
    123 H57         4.9040   -3.3540   -1.8710 hc        1 MOL      0.100297
    124 H58         5.4040   -5.0790   -1.7880 hc        1 MOL      0.100297
    125 H59         4.1500   -4.3810   -0.6900 hc        1 MOL      0.100297
    126 N11         8.2710   -1.8620    1.0150 n         1 MOL     -0.462852
    127 C39         9.4720   -1.7760    1.7480 c3        1 MOL      0.196289
    128 C40        10.0410   -0.3980    1.6670 c         1 MOL      0.529845
    129 O19        10.2570    0.2030    2.7410 o         1 MOL     -0.560729
    130 C41        10.3580   -2.9280    1.1430 c3        1 MOL      0.347312
    131 C42        11.7820   -3.0140    1.6830 c3        1 MOL     -0.418904
    132 O20        10.4530   -2.9140   -0.2910 oh        1 MOL     -0.627174
    133 H60         8.3490   -1.8140    0.0080 hn        1 MOL      0.247150
    134 H61         9.3580   -2.0280    2.8030 h1        1 MOL      0.055511
    135 H62         9.8000   -3.8320    1.4010 h1        1 MOL      0.000284
    136 H63        10.1560   -3.7990   -0.5200 ho        1 MOL      0.402469
    137 H64        12.2660   -3.8240    1.1340 hc        1 MOL      0.096866
    138 H65        12.3930   -2.1360    1.4710 hc        1 MOL      0.096866
    139 H66        11.6800   -3.2130    2.7540 hc        1 MOL      0.096866
    140 N12        10.3020    0.0620    0.4530 n         1 MOL     -0.385054
    141 C43        10.6940    1.4150    0.0760 c3        1 MOL     -0.027666
    142 C44         9.6280    2.0790   -0.7900 c         1 MOL      0.540049
    143 O21         9.1150    1.4880   -1.7290 o         1 MOL     -0.535065
    144 C45        11.9220    1.5100   -0.6770 c3        1 MOL     -0.133000
    145 C46        13.1230    1.2610    0.3640 c3        1 MOL     -0.082153
    146 C47        14.5190    1.4170   -0.3010 c3        1 MOL     -0.126995
    147 C48        14.7100    0.4040   -1.4280 c3        1 MOL      0.043331
    148 N13        16.1100    0.3430   -2.0110 n4        1 MOL     -0.130049
    149 H67        10.2520   -0.5110   -0.3790 hn        1 MOL      0.265409
    150 H68        10.8300    1.9480    1.0170 h1        1 MOL      0.095682
    151 H69        11.8920    2.5190   -1.0720 hc        1 MOL      0.083087
    152 H70        11.9570    0.8550   -1.5500 hc        1 MOL      0.083087
    153 H71        12.9550    0.2620    0.7750 hc        1 MOL      0.074380
    154 H72        13.1340    1.8930    1.2530 hc        1 MOL      0.074380
    155 H73        15.2880    1.2750    0.4590 hc        1 MOL      0.068190
    156 H74        14.6640    2.4070   -0.7400 hc        1 MOL      0.068190
    157 H75        14.0540    0.6150   -2.2720 hx        1 MOL      0.076859
    158 H76        14.5590   -0.6420   -1.1660 hx        1 MOL      0.076859
    159 H77        16.6850   -0.0460   -1.2880 hn        1 MOL      0.210037
    160 H78        16.2940   -0.1720   -2.8600 hn        1 MOL      0.210037
    161 H79        16.5310    1.2560   -2.1030 hn        1 MOL      0.210037
    162 N14         9.2200    3.2860   -0.4870 n         1 MOL     -0.420482
    163 C49         8.4790    4.1910   -1.4180 c3        1 MOL      0.230805
    164 C50         6.9720    4.1070   -1.1330 c         1 MOL      0.351456
    165 O22         6.1760    3.9570   -2.0780 o         1 MOL     -0.520867
    166 C51         9.0280    5.6500   -1.4550 c3        1 MOL     -0.198582
    167 C52         8.1810    6.7160   -2.2400 c3        1 MOL     -0.008277
    168 C53         8.8080    8.0960   -2.2540 c         1 MOL      0.658455
    169 O23         9.8390    8.2240   -2.9460 o         1 MOL     -0.655499
    170 O24         8.1560    9.0020   -1.6420 o         1 MOL     -0.655499
    171 H80         9.5990    3.8060    0.2950 hn        1 MOL      0.229303
    172 H81         8.6680    3.8660   -2.4360 h1        1 MOL      0.068833
    173 H82        10.0510    5.6810   -1.8390 hc        1 MOL      0.036367
    174 H83         9.0250    6.0020   -0.4180 hc        1 MOL      0.036367
    175 H84         7.1580    6.7490   -1.8640 hc        1 MOL      0.015182
    176 H85         7.9900    6.3710   -3.2520 hc        1 MOL      0.015182
    177 N15         6.4630    4.1420    0.0930 n         1 MOL     -0.280588
    178 C54         7.0690    4.6150    1.4010 c3        1 MOL     -0.187429
    179 H86         7.8710    3.9390    1.6960 h1        1 MOL      0.094854
    180 H87         7.4710    5.6200    1.2740 h1        1 MOL      0.094854
    181 H88         6.3010    4.6260    2.1740 h1        1 MOL      0.094854
    182 H89         5.5150    3.7830    0.1680 hn        1 MOL      0.274154
    183 Ca1        -7.5700    4.2240    1.1850 Ca        1 MOL      1.684238
    184 O25        -7.4900    3.0490    3.7360 oh        1 MOL     -0.634177
    185 H90        -6.8930    3.7900    3.8410 ho        1 MOL      0.336106
    186 H91        -7.8210    2.8790    4.6210 ho        1 MOL      0.336106
@<TRIPOS>BOND
     1    1    2 1   
     2    1    4 1   
     3    1    5 1   
     4    1    6 1   
     5    2    3 2   
     6    2    7 1   
     7    7    8 1   
     8    7   15 1   
     9    8    9 1   
    10    8   11 1   
    11    8   16 1   
    12    9   10 2   
    13    9   19 1   
    14   11   12 1   
    15   11   17 1   
    16   11   18 1   
    17   12   13 1   
    18   12   14 1   
    19   19   20 1   
    20   19   28 1   
    21   20   21 1   
    22   20   23 1   
    23   20   29 1   
    24   21   22 2   
    25   21   41 1   
    26   23   24 1   
    27   23   30 1   
    28   23   31 1   
    29   24   25 1   
    30   24   32 1   
    31   24   33 1   
    32   25   26 1   
    33   25   34 1   
    34   25   35 1   
    35   26   27 1   
    36   26   36 1   
    37   26   37 1   
    38   27   38 1   
    39   27   39 1   
    40   27   40 1   
    41   41   42 1   
    42   41   49 1   
    43   42   43 1   
    44   42   45 1   
    45   42   50 1   
    46   43   44 2   
    47   43   53 1   
    48   45   46 1   
    49   45   51 1   
    50   45   52 1   
    51   46   47 1   
    52   46   48 1   
    53   53   54 1   
    54   53   57 1   
    55   54   55 1   
    56   54   58 1   
    57   54   59 1   
    58   55   56 2   
    59   55   60 1   
    60   60   61 1   
    61   60   68 1   
    62   61   62 1   
    63   61   64 1   
    64   61   69 1   
    65   62   63 2   
    66   62   72 1   
    67   64   65 1   
    68   64   70 1   
    69   64   71 1   
    70   65   66 1   
    71   65   67 1   
    72   72   73 1   
    73   72   76 1   
    74   73   74 1   
    75   73   77 1   
    76   73   78 1   
    77   74   75 2   
    78   74   79 1   
    79   79   80 1   
    80   79   86 1   
    81   80   81 1   
    82   80   83 1   
    83   80   87 1   
    84   81   82 2   
    85   81   93 1   
    86   83   84 1   
    87   83   85 1   
    88   83   88 1   
    89   84   90 1   
    90   84   91 1   
    91   84   92 1   
    92   85   89 1   
    93   93   94 1   
    94   93  101 1   
    95   94   95 1   
    96   94   97 1   
    97   94  102 1   
    98   95   96 2   
    99   95  112 1   
   100   97   98 1   
   101   97   99 1   
   102   97  103 1   
   103   98  100 1   
   104   98  104 1   
   105   98  105 1   
   106   99  106 1   
   107   99  107 1   
   108   99  108 1   
   109  100  109 1   
   110  100  110 1   
   111  100  111 1   
   112  112  113 1   
   113  112  119 1   
   114  113  114 1   
   115  113  116 1   
   116  113  120 1   
   117  114  115 2   
   118  114  126 1   
   119  116  117 1   
   120  116  118 1   
   121  116  121 1   
   122  117  123 1   
   123  117  124 1   
   124  117  125 1   
   125  118  122 1   
   126  126  127 1   
   127  126  133 1   
   128  127  128 1   
   129  127  130 1   
   130  127  134 1   
   131  128  129 2   
   132  128  140 1   
   133  130  131 1   
   134  130  132 1   
   135  130  135 1   
   136  131  137 1   
   137  131  138 1   
   138  131  139 1   
   139  132  136 1   
   140  140  141 1   
   141  140  149 1   
   142  141  142 1   
   143  141  144 1   
   144  141  150 1   
   145  142  143 2   
   146  142  162 1   
   147  144  145 1   
   148  144  151 1   
   149  144  152 1   
   150  145  146 1   
   151  145  153 1   
   152  145  154 1   
   153  146  147 1   
   154  146  155 1   
   155  146  156 1   
   156  147  148 1   
   157  147  157 1   
   158  147  158 1   
   159  148  159 1   
   160  148  160 1   
   161  148  161 1   
   162  162  163 1   
   163  162  171 1   
   164  163  164 1   
   165  163  166 1   
   166  163  172 1   
   167  164  165 2   
   168  164  177 1   
   169  166  167 1   
   170  166  173 1   
   171  166  174 1   
   172  167  168 1   
   173  167  175 1   
   174  167  176 1   
   175  168  169 1   
   176  168  170 1   
   177  177  178 1   
   178  177  182 1   
   179  178  179 1   
   180  178  180 1   
   181  178  181 1   
   182  184  185 1   
   183  184  186 1   
@<TRIPOS>SUBSTRUCTURE
     1 MOL         1 TEMP              0 ****  ****    0 ROOT
