@<TRIPOS>MOLECULE
MOL
  182   178     1     0     0
SMALL
resp


@<TRIPOS>ATOM
      1 C1          0.1840   -3.3770    6.5190 c3        1 MOL     -0.343869
      2 C2          0.3330   -3.1400    5.0160 c         1 MOL      0.700516
      3 O1         -0.6720   -3.2680    4.2660 o         1 MOL     -0.560101
      4 H1         -0.1710   -2.4650    6.9960 hc        1 MOL      0.102187
      5 H2         -0.5330   -4.1800    6.6910 hc        1 MOL      0.102187
      6 H3          1.1500   -3.6560    6.9400 hc        1 MOL      0.102187
      7 N1          1.5210   -2.7070    4.5350 n         1 MOL     -0.558261
      8 C3          1.8000   -2.6020    3.1200 c3        1 MOL      0.138734
      9 C4          1.8630   -3.9830    2.4970 c         1 MOL      0.497457
     10 O2          2.2270   -5.0500    3.0870 o         1 MOL     -0.524223
     11 C5          3.0400   -1.7580    3.0670 c3        1 MOL     -0.051755
     12 C6          3.3580   -1.2030    1.6710 c         1 MOL      0.670694
     13 O3          4.2360   -0.3640    1.5810 o         1 MOL     -0.664946
     14 O4          2.7330   -1.5580    0.6430 o         1 MOL     -0.664946
     15 H4          2.2320   -2.3970    5.1830 hn        1 MOL      0.327316
     16 H5          1.0450   -2.0060    2.6100 h1        1 MOL     -0.408829
     17 H6          3.8980   -2.3630    3.3680 hc        1 MOL      0.051439
     18 H7          3.0700   -0.8850    3.7190 hc        1 MOL      0.051439
     19 N2          1.5460   -3.9730    1.1740 n         1 MOL     -0.155779
     20 C7          1.6720   -5.1690    0.2770 c3        1 MOL     -0.040055
     21 C8          3.0160   -5.2210   -0.5180 c         1 MOL      0.520332
     22 O5          3.4750   -6.3560   -0.6510 o         1 MOL     -0.579537
     23 C9          0.4870   -5.0590   -0.7090 c3        1 MOL      0.024187
     24 C10         0.2280   -6.4860   -1.2550 c3        1 MOL      0.116784
     25 C11        -1.2130   -6.5610   -1.9570 c3        1 MOL     -0.074104
     26 C12        -1.2310   -7.9380   -2.6530 c3        1 MOL      0.010721
     27 N3         -2.5530   -8.2980   -3.1920 n4        1 MOL     -0.206436
     28 H8          1.3000   -3.0750    0.7740 hn        1 MOL      0.139183
     29 H9          1.5650   -6.0710    0.8740 h1        1 MOL      0.103988
     30 H10         0.7010   -4.4780   -1.6110 hc        1 MOL     -0.019253
     31 H11        -0.4190   -4.7580   -0.1810 hc        1 MOL     -0.019253
     32 H12         0.3370   -7.2520   -0.4860 hc        1 MOL     -0.006099
     33 H13         1.0130   -6.6180   -1.9970 hc        1 MOL     -0.006099
     34 H14        -1.1220   -5.8000   -2.7350 hc        1 MOL      0.043891
     35 H15        -1.9970   -6.3770   -1.2280 hc        1 MOL      0.043891
     36 H16        -0.9400   -8.5770   -1.8250 hx        1 MOL      0.075690
     37 H17        -0.5410   -7.9510   -3.4990 hx        1 MOL      0.075690
     38 H18        -2.9280   -7.5390   -3.7440 hn        1 MOL      0.255972
     39 H19        -2.4860   -9.1910   -3.6500 hn        1 MOL      0.255972
     40 H20        -3.1780   -8.4640   -2.4170 hn        1 MOL      0.255972
     41 N4          3.6530   -4.1250   -0.9150 n         1 MOL     -0.294963
     42 C13         4.8930   -4.1520   -1.7230 c3        1 MOL      0.175149
     43 C14         6.0660   -3.5680   -0.9540 c         1 MOL      0.477840
     44 O6          7.1960   -3.8360   -1.2710 o         1 MOL     -0.551860
     45 C15         4.6690   -3.4560   -3.0650 c3        1 MOL     -0.446418
     46 C16         4.2880   -2.0060   -3.1030 c         1 MOL      0.948863
     47 O7          3.9490   -1.3600   -4.0810 o         1 MOL     -0.759466
     48 O8          4.4740   -1.4250   -2.0510 o         1 MOL     -0.759466
     49 H21         3.1470   -3.2730   -0.7360 hn        1 MOL      0.152066
     50 H22         5.1300   -5.2030   -1.9150 h1        1 MOL      0.091197
     51 H23         3.9210   -4.0230   -3.6240 hc        1 MOL      0.103065
     52 H24         5.5890   -3.5000   -3.6310 hc        1 MOL      0.103065
     53 N5          5.7890   -2.7570    0.0580 n         1 MOL     -0.150851
     54 C17         6.6960   -2.0640    0.9490 c3        1 MOL     -0.201732
     55 C18         7.2420   -0.7160    0.5840 c         1 MOL      0.473686
     56 O9          8.0900   -0.2140    1.3200 o         1 MOL     -0.542843
     57 H25         4.8570   -2.3610   -0.0130 hn        1 MOL     -0.044581
     58 H26         7.5360   -2.6240    1.3660 h1        1 MOL      0.124259
     59 H27         6.1480   -1.8580    1.8700 h1        1 MOL      0.124259
     60 N6          6.7840   -0.1740   -0.5100 n         1 MOL     -0.017296
     61 C19         7.2420    1.1780   -0.8960 c3        1 MOL     -0.079372
     62 C20         6.1740    2.2400   -0.8230 c         1 MOL      0.642526
     63 O10         4.9410    1.9360   -0.7160 o         1 MOL     -0.598870
     64 C21         7.9530    1.0500   -2.2290 c3        1 MOL     -0.252958
     65 C22         9.2080    0.1850   -2.2710 c         1 MOL      0.754062
     66 N7          9.1390   -1.0160   -2.8430 n         1 MOL     -0.897522
     67 O11        10.2550    0.6010   -1.7680 o         1 MOL     -0.561925
     68 H28         5.9860   -0.6530   -0.8940 hn        1 MOL      0.124661
     69 H29         7.8880    1.5400   -0.0960 h1        1 MOL      0.075728
     70 H30         8.3070    2.0210   -2.5820 hc        1 MOL      0.047732
     71 H31         7.2340    0.8030   -3.0090 hc        1 MOL      0.047732
     72 H32         8.3120   -1.4120   -3.2750 hn        1 MOL      0.403227
     73 H33         9.8930   -1.6660   -2.6650 hn        1 MOL      0.403227
     74 N8          6.5580    3.5450   -0.9120 n         1 MOL     -0.423009
     75 C23         5.6190    4.5950   -0.9610 c3        1 MOL     -0.119804
     76 C24         4.6520    4.6120    0.2440 c         1 MOL      0.563909
     77 O12         5.0810    4.5200    1.4350 o         1 MOL     -0.505854
     78 H34         7.5330    3.6800   -1.1410 hn        1 MOL      0.329890
     79 H35         5.0690    4.5550   -1.9010 h1        1 MOL      0.085650
     80 H36         6.1390    5.5530   -0.9680 h1        1 MOL      0.085650
     81 N9          3.4230    4.8180   -0.1040 n         1 MOL     -0.518503
     82 C25         2.3140    4.7520    0.8240 c3        1 MOL      0.257763
     83 C26         1.9740    3.3300    1.2420 c         1 MOL      0.420778
     84 O13         2.7050    2.4580    0.8420 o         1 MOL     -0.423604
     85 C27         1.1000    5.4520    0.0930 c3        1 MOL     -0.202680
     86 C28         1.2010    6.8520   -0.4810 ca        1 MOL      0.034984
     87 C29         1.2750    7.8460    0.5010 ca        1 MOL     -0.126097
     88 C30         1.3810    7.1330   -1.8680 ca        1 MOL     -0.126097
     89 C31         1.3060    9.1760    0.1190 ca        1 MOL     -0.331173
     90 C32         1.4090    8.5320   -2.2270 ca        1 MOL     -0.331173
     91 C33         1.4640    9.4890   -1.2540 ca        1 MOL      0.481577
     92 O14         1.5300   10.7940   -1.4850 oh        1 MOL     -0.547066
     93 H37         3.1220    4.9280   -1.0560 hn        1 MOL      0.276637
     94 H38         2.5060    5.3160    1.7390 h1        1 MOL      0.041811
     95 H39         0.2060    5.5100    0.7090 hc        1 MOL      0.047541
     96 H40         0.8110    4.8440   -0.7730 hc        1 MOL      0.047541
     97 H41         1.2370    7.5710    1.5420 ha        1 MOL      0.136008
     98 H42         1.3770    6.3660   -2.6350 ha        1 MOL      0.136008
     99 H43         1.0860    9.9040    0.8890 ha        1 MOL      0.171635
    100 H44         1.4730    8.6290   -3.3010 ha        1 MOL      0.171635
    101 H45         1.2290   11.3700   -0.7840 ho        1 MOL      0.402275
    102 N10         0.8230    3.2430    1.9280 n         1 MOL     -0.620206
    103 C34         0.1470    2.0220    2.3810 c3        1 MOL      0.002837
    104 C35        -0.0880    0.9040    1.2890 c         1 MOL      0.246161
    105 O15         0.8530    0.3860    0.7060 o         1 MOL     -0.202969
    106 C36         0.9790    1.4860    3.6100 c3        1 MOL      0.252455
    107 C37         0.1890    0.4810    4.5680 c3        1 MOL      0.098537
    108 C38         1.6460    2.5220    4.5510 c3        1 MOL     -0.427292
    109 C39        -0.9070    1.1710    5.4070 c3        1 MOL     -0.486649
    110 H46         0.4040    4.0920    2.2900 hn        1 MOL      0.357738
    111 H47        -0.8610    2.3250    2.6670 h1        1 MOL      0.069179
    112 H48         1.8740    1.0110    3.2090 hc        1 MOL      0.062618
    113 H49         0.8960    0.0080    5.2400 hc        1 MOL      0.029596
    114 H50        -0.2330   -0.3580    4.0140 hc        1 MOL      0.029596
    115 H51         2.5630    2.8900    4.0830 hc        1 MOL      0.111309
    116 H52         0.9620    3.3350    4.7690 hc        1 MOL      0.111309
    117 H53         1.9490    2.0470    5.4820 hc        1 MOL      0.111309
    118 H54        -1.7370    1.4300    4.7370 hc        1 MOL      0.120492
    119 H55        -1.4250    0.5210    6.1170 hc        1 MOL      0.120492
    120 H56        -0.4880    1.9690    6.0270 hc        1 MOL      0.120492
    121 N11        -1.3330    0.4360    1.2310 n         1 MOL     -0.090441
    122 C40        -1.7960   -0.7440    0.4930 c3        1 MOL     -0.765104
    123 C41        -3.2060   -0.7410   -0.1310 c         1 MOL      0.834139
    124 O16        -3.3700   -1.2440   -1.2390 o         1 MOL     -0.593719
    125 C42        -1.6860   -1.9910    1.4380 c3        1 MOL      0.231573
    126 O17        -2.2480   -1.6690    2.6710 oh        1 MOL     -0.502554
    127 H57        -1.9870    0.9040    1.8330 hn        1 MOL      0.235770
    128 H58        -1.2080   -0.7670   -0.4270 h1        1 MOL      0.291450
    129 H59        -0.6180   -1.9680    1.6430 h1        1 MOL      0.074181
    130 H60        -1.9990   -2.9590    1.0320 h1        1 MOL      0.074181
    131 H61        -1.9790   -2.3510    3.2970 ho        1 MOL      0.364040
    132 N12        -4.1480   -0.0030    0.4290 n         1 MOL     -0.540112
    133 C43        -5.5370   -0.1080    0.0550 c3        1 MOL     -0.014939
    134 C44        -5.9730    0.2440   -1.4590 c         1 MOL      0.680706
    135 O18        -5.2180    0.8690   -2.1770 o         1 MOL     -0.552857
    136 C45        -6.3180    0.5590    1.2250 c3        1 MOL     -0.217890
    137 H62        -3.7840    0.5300    1.2080 hn        1 MOL      0.321179
    138 H63        -5.7530   -1.1770    0.1240 h1        1 MOL      0.118542
    139 H64        -7.3860    0.5300    1.0120 hc        1 MOL      0.078454
    140 H65        -6.1580   -0.0170    2.1390 hc        1 MOL      0.078454
    141 H66        -6.1290    1.6080    1.4440 hc        1 MOL      0.078454
    142 N13        -7.1810    0.0170   -2.0140 n         1 MOL     -0.660401
    143 C46        -8.2170   -0.7610   -1.4890 c3        1 MOL      0.361567
    144 C47        -9.5750   -0.3770   -2.1690 c         1 MOL      0.350359
    145 O19        -9.6430   -0.2450   -3.3600 o         1 MOL     -0.505421
    146 C48        -7.8430   -2.2120   -1.8460 c3        1 MOL     -0.148647
    147 H67        -7.3490    0.3480   -2.9480 hn        1 MOL      0.342752
    148 H68        -8.2370   -0.6980   -0.3970 h1        1 MOL     -0.016475
    149 H69        -8.7130   -2.8360   -1.6520 hc        1 MOL      0.028022
    150 H70        -7.5930   -2.2480   -2.9090 hc        1 MOL      0.028022
    151 H71        -7.0300   -2.5890   -1.2260 hc        1 MOL      0.028022
    152 N14       -10.7210   -0.1850   -1.4620 n         1 MOL     -0.188513
    153 C49       -10.8160   -0.3660   -0.0040 c3        1 MOL     -0.358295
    154 C50       -10.2090    0.7350    0.8450 c         1 MOL      0.609052
    155 O20        -9.6870    0.4770    1.9150 o         1 MOL     -0.563122
    156 C51       -12.3480   -0.5170    0.2200 c3        1 MOL     -0.066459
    157 C52       -13.3420    0.6210    0.1970 c3        1 MOL      0.034614
    158 C53       -13.8450    1.0360   -1.1740 c         1 MOL      0.653342
    159 O21       -12.9790    1.3990   -1.9930 o         1 MOL     -0.647279
    160 O22       -15.0230    0.7660   -1.5260 o         1 MOL     -0.647279
    161 H72       -11.5060    0.1890   -1.9710 hn        1 MOL      0.243217
    162 H73       -10.3320   -1.3360    0.1250 h1        1 MOL      0.133472
    163 H74       -12.5490   -1.0040    1.1770 hc        1 MOL      0.060022
    164 H75       -12.6860   -1.2510   -0.5020 hc        1 MOL      0.060022
    165 H76       -12.8870    1.5730    0.4700 hc        1 MOL     -0.036839
    166 H77       -14.1700    0.4300    0.8780 hc        1 MOL     -0.036839
    167 N15       -10.0620    1.9590    0.3460 n         1 MOL     -0.259092
    168 C54        -9.1510    2.9830    0.9980 c3        1 MOL     -0.240559
    169 H78        -9.3110    2.9770    2.0760 h1        1 MOL      0.111926
    170 H79        -8.1110    2.7330    0.7850 h1        1 MOL      0.111926
    171 H80        -9.3750    3.9740    0.6020 h1        1 MOL      0.111926
    172 H81       -10.3800    2.1030   -0.6040 hn        1 MOL      0.224474
    173 Ca1         2.8180    0.3090   -0.9720 Ca        1 MOL      1.752269
    174 O23         1.1040   -1.1140   -2.2760 oh        1 MOL     -0.868911
    175 H82         0.1820   -1.2450   -2.0780 ho        1 MOL      0.419183
    176 H83         1.2740   -1.6620   -3.0380 ho        1 MOL      0.419183
    177 O24         4.0550    1.2300   -3.3410 oh        1 MOL     -0.868911
    178 H84         4.0690    0.3610   -3.7520 ho        1 MOL      0.419183
    179 H85         4.5360    1.7840   -3.9550 ho        1 MOL      0.419183
    180 O25         1.0000    1.8970   -1.9390 oh        1 MOL     -0.868911
    181 H86         1.3220    2.6740   -2.3960 ho        1 MOL      0.419183
    182 H87         0.0720    2.0970   -1.7690 ho        1 MOL      0.419183
@<TRIPOS>BOND
     1    1    2 1   
     2    1    4 1   
     3    1    5 1   
     4    1    6 1   
     5    2    3 2   
     6    2    7 1   
     7    7    8 1   
     8    7   15 1   
     9    8    9 1   
    10    8   11 1   
    11    8   16 1   
    12    9   10 2   
    13    9   19 1   
    14   11   12 1   
    15   11   17 1   
    16   11   18 1   
    17   12   13 1   
    18   12   14 1   
    19   19   20 1   
    20   19   28 1   
    21   20   21 1   
    22   20   23 1   
    23   20   29 1   
    24   21   22 2   
    25   21   41 1   
    26   23   24 1   
    27   23   30 1   
    28   23   31 1   
    29   24   25 1   
    30   24   32 1   
    31   24   33 1   
    32   25   26 1   
    33   25   34 1   
    34   25   35 1   
    35   26   27 1   
    36   26   36 1   
    37   26   37 1   
    38   27   38 1   
    39   27   39 1   
    40   27   40 1   
    41   41   42 1   
    42   41   49 1   
    43   42   43 1   
    44   42   45 1   
    45   42   50 1   
    46   43   44 2   
    47   43   53 1   
    48   45   46 1   
    49   45   51 1   
    50   45   52 1   
    51   46   47 1   
    52   46   48 1   
    53   53   54 1   
    54   53   57 1   
    55   54   55 1   
    56   54   58 1   
    57   54   59 1   
    58   55   56 2   
    59   55   60 1   
    60   60   61 1   
    61   60   68 1   
    62   61   62 1   
    63   61   64 1   
    64   61   69 1   
    65   62   63 2   
    66   62   74 1   
    67   64   65 1   
    68   64   70 1   
    69   64   71 1   
    70   65   66 1   
    71   65   67 2   
    72   66   72 1   
    73   66   73 1   
    74   74   75 1   
    75   74   78 1   
    76   75   76 1   
    77   75   79 1   
    78   75   80 1   
    79   76   77 2   
    80   76   81 1   
    81   81   82 1   
    82   81   93 1   
    83   82   83 1   
    84   82   85 1   
    85   82   94 1   
    86   83   84 2   
    87   83  102 1   
    88   85   86 1   
    89   85   95 1   
    90   85   96 1   
    91   86   87 ar  
    92   86   88 ar  
    93   87   89 ar  
    94   87   97 1   
    95   88   90 ar  
    96   88   98 1   
    97   89   91 ar  
    98   89   99 1   
    99   90   91 ar  
   100   90  100 1   
   101   91   92 1   
   102   92  101 1   
   103  102  103 1   
   104  102  110 1   
   105  103  104 1   
   106  103  106 1   
   107  103  111 1   
   108  104  105 2   
   109  104  121 1   
   110  106  107 1   
   111  106  108 1   
   112  106  112 1   
   113  107  109 1   
   114  107  113 1   
   115  107  114 1   
   116  108  115 1   
   117  108  116 1   
   118  108  117 1   
   119  109  118 1   
   120  109  119 1   
   121  109  120 1   
   122  121  122 1   
   123  121  127 1   
   124  122  123 1   
   125  122  125 1   
   126  122  128 1   
   127  123  124 2   
   128  123  132 1   
   129  125  126 1   
   130  125  129 1   
   131  125  130 1   
   132  126  131 1   
   133  132  133 1   
   134  132  137 1   
   135  133  134 1   
   136  133  136 1   
   137  133  138 1   
   138  134  135 2   
   139  134  142 1   
   140  136  139 1   
   141  136  140 1   
   142  136  141 1   
   143  142  143 1   
   144  142  147 1   
   145  143  144 1   
   146  143  146 1   
   147  143  148 1   
   148  144  145 2   
   149  144  152 1   
   150  146  149 1   
   151  146  150 1   
   152  146  151 1   
   153  152  153 1   
   154  152  161 1   
   155  153  154 1   
   156  153  156 1   
   157  153  162 1   
   158  154  155 2   
   159  154  167 1   
   160  156  157 1   
   161  156  163 1   
   162  156  164 1   
   163  157  158 1   
   164  157  165 1   
   165  157  166 1   
   166  158  159 1   
   167  158  160 1   
   168  167  168 1   
   169  167  172 1   
   170  168  169 1   
   171  168  170 1   
   172  168  171 1   
   173  174  175 1   
   174  174  176 1   
   175  177  178 1   
   176  177  179 1   
   177  180  181 1   
   178  180  182 1   
@<TRIPOS>SUBSTRUCTURE
     1 MOL         1 TEMP              0 ****  ****    0 ROOT
