@<TRIPOS>MOLECULE
MOL
  198   191     1     0     0
SMALL
resp


@<TRIPOS>ATOM
      1 C1          3.9640    1.3900   -5.9850 c3        1 MOL     -0.497281
      2 C2          4.9580    0.6110   -5.0530 c         1 MOL      0.702246
      3 O1          4.8760   -0.5800   -4.8580 o         1 MOL     -0.596484
      4 H1          4.1730    1.1430   -7.0260 hc        1 MOL      0.124573
      5 H2          2.9390    1.1050   -5.7430 hc        1 MOL      0.124573
      6 H3          4.0880    2.4630   -5.8340 hc        1 MOL      0.124573
      7 N1          5.8200    1.3390   -4.4620 n         1 MOL     -0.392065
      8 C3          7.0030    0.8430   -3.6870 c3        1 MOL     -0.062822
      9 C4          6.5660    0.0020   -2.4290 c         1 MOL      0.368558
     10 O2          5.4150    0.0810   -1.9840 o         1 MOL     -0.425205
     11 C5          7.9700    2.0270   -3.3310 c3        1 MOL     -0.250539
     12 C6          7.3240    3.1850   -2.5900 c         1 MOL      0.687688
     13 O3          7.9580    4.2680   -2.5740 o         1 MOL     -0.715598
     14 O4          6.3390    2.9300   -1.8520 o         1 MOL     -0.715598
     15 H4          5.9400    2.2940   -4.7600 hn        1 MOL      0.277170
     16 H5          7.4790    0.1640   -4.3980 h1        1 MOL      0.051554
     17 H6          8.4140    2.3430   -4.2750 hc        1 MOL      0.108672
     18 H7          8.7950    1.5800   -2.7690 hc        1 MOL      0.108672
     19 N2          7.4840   -0.7680   -1.8520 n         1 MOL     -0.323953
     20 C7          7.1870   -1.6770   -0.6930 c3        1 MOL      0.034262
     21 C8          7.4170   -1.1040    0.6650 c         1 MOL      0.410612
     22 O5          7.7830   -1.8210    1.5600 o         1 MOL     -0.574052
     23 C9          7.7080   -3.0430   -0.9380 c3        1 MOL      0.022091
     24 C10         7.1850   -3.6830   -2.2400 c3        1 MOL      0.061683
     25 C11         7.4730   -5.1890   -2.4560 c3        1 MOL     -0.170052
     26 C12         8.9010   -5.5800   -2.0120 c3        1 MOL      0.076599
     27 N3          8.8920   -6.4520   -0.8030 n4        1 MOL     -0.441255
     28 H8          8.4080   -0.8410   -2.2560 hn        1 MOL      0.246309
     29 H9          6.1170   -1.8720   -0.6580 h1        1 MOL      0.101071
     30 H10         7.3290   -3.7180   -0.1810 hc        1 MOL      0.013936
     31 H11         8.7930   -2.9700   -0.8320 hc        1 MOL      0.013936
     32 H12         7.6770   -3.1440   -3.0500 hc        1 MOL      0.017992
     33 H13         6.1100   -3.5000   -2.2820 hc        1 MOL      0.017992
     34 H14         7.4620   -5.3160   -3.5390 hc        1 MOL      0.070397
     35 H15         6.6370   -5.7710   -2.0730 hc        1 MOL      0.070397
     36 H16         9.6120   -4.7490   -1.9890 hx        1 MOL      0.084942
     37 H17         9.2730   -6.1690   -2.8580 hx        1 MOL      0.084942
     38 H18         8.0960   -7.0790   -0.8190 hn        1 MOL      0.303939
     39 H19         9.7450   -6.9790   -0.6860 hn        1 MOL      0.303939
     40 H20         8.8110   -6.0270    0.1050 hn        1 MOL      0.303939
     41 N4          7.3360    0.2140    0.7060 n         1 MOL     -0.097932
     42 C13         7.6800    1.0630    1.9260 c3        1 MOL     -0.039255
     43 C14         6.5500    2.0830    2.1170 c         1 MOL      0.106600
     44 O6          5.9840    2.5620    1.1560 o         1 MOL     -0.351734
     45 C15         9.0660    1.7590    1.8790 c3        1 MOL     -0.012033
     46 C16         9.3620    2.6350    0.6650 c         1 MOL      0.627783
     47 O7         10.2610    2.2700   -0.0350 o         1 MOL     -0.666597
     48 O8          8.6220    3.6600    0.5340 o         1 MOL     -0.666597
     49 H21         7.1930    0.6410   -0.1950 hn        1 MOL      0.181082
     50 H22         7.6760    0.3650    2.7680 h1        1 MOL      0.155112
     51 H23         9.8860    1.0510    2.0000 hc        1 MOL      0.010417
     52 H24         9.1190    2.3600    2.7880 hc        1 MOL      0.010417
     53 N5          6.2540    2.6320    3.3700 n         1 MOL     -0.313709
     54 C17         6.6970    2.0590    4.6980 c3        1 MOL     -0.383270
     55 C18         6.5820    0.5330    4.8180 c         1 MOL      0.679669
     56 O9          7.5540   -0.2300    4.9430 o         1 MOL     -0.575430
     57 H25         5.6650    3.4450    3.3910 hn        1 MOL      0.339723
     58 H26         6.1610    2.5610    5.4960 h1        1 MOL      0.145684
     59 H27         7.7510    2.2870    4.8880 h1        1 MOL      0.145684
     60 N6          5.3590    0.0860    4.5840 n         1 MOL     -0.513060
     61 C19         5.0360   -1.3480    4.3810 c3        1 MOL      0.245901
     62 C20         4.3810   -1.5870    2.9910 c         1 MOL      0.577146
     63 O10         3.9230   -0.6390    2.3160 o         1 MOL     -0.472620
     64 C21         4.1810   -1.8820    5.4790 c3        1 MOL     -0.327329
     65 C22         3.0930   -0.8860    5.9380 c         1 MOL      0.788550
     66 O11         1.9790   -0.9480    5.4000 o         1 MOL     -0.668245
     67 O12         3.2930   -0.2660    7.0500 o         1 MOL     -0.668245
     68 H28         4.7100    0.8270    4.3420 hn        1 MOL      0.286916
     69 H29         5.9140   -1.9960    4.3290 h1        1 MOL      0.042283
     70 H30         4.8400   -2.0190    6.3340 hc        1 MOL      0.059904
     71 H31         3.6230   -2.7830    5.2190 hc        1 MOL      0.059904
     72 N7          4.4840   -2.8450    2.5120 n         1 MOL     -0.582892
     73 C23         4.0160   -3.2660    1.1600 c3        1 MOL      0.072465
     74 C24         2.5090   -3.2880    1.0790 c         1 MOL      0.539782
     75 O13         1.7760   -3.1410    2.0810 o         1 MOL     -0.458726
     76 H32         4.9570   -3.5470    3.0530 hn        1 MOL      0.310052
     77 H33         4.3650   -4.2940    1.0000 h1        1 MOL      0.028110
     78 H34         4.4090   -2.6490    0.3520 h1        1 MOL      0.028110
     79 N8          2.0140   -3.6470   -0.0920 n         1 MOL     -0.535098
     80 C25         0.6390   -4.0880   -0.4240 c3        1 MOL      0.339758
     81 C26        -0.0570   -2.9530   -1.2410 c         1 MOL      0.367512
     82 O14         0.3680   -1.8170   -1.2820 o         1 MOL     -0.448065
     83 C27         0.6640   -5.4170   -1.1890 c3        1 MOL      0.096094
     84 C28         1.5660   -5.4140   -2.3890 c3        1 MOL     -0.372079
     85 O15         1.2280   -6.4410   -0.3860 oh        1 MOL     -0.611650
     86 H35         2.6750   -3.6710   -0.8560 hn        1 MOL      0.299948
     87 H36        -0.0190   -4.1590    0.4450 h1        1 MOL      0.035351
     88 H37        -0.3420   -5.6390   -1.5530 h1        1 MOL      0.054464
     89 H38         1.3070   -7.2050   -0.9560 ho        1 MOL      0.410431
     90 H39         1.0370   -5.9360   -3.1840 hc        1 MOL      0.096669
     91 H40         1.7730   -4.4190   -2.7650 hc        1 MOL      0.096669
     92 H41         2.5170   -5.9260   -2.2070 hc        1 MOL      0.096669
     93 N9         -1.2220   -3.1840   -1.8820 n         1 MOL     -0.300313
     94 C29        -1.8740   -2.1210   -2.7500 c3        1 MOL     -0.052690
     95 C30        -2.9380   -1.3830   -1.8650 c         1 MOL      0.675386
     96 O16        -2.9410   -0.2050   -1.9380 o         1 MOL     -0.548636
     97 C31        -2.4430   -2.6850   -4.0630 c3        1 MOL      0.118596
     98 C32        -1.2510   -3.3750   -4.7050 c3        1 MOL     -0.111859
     99 C33        -3.1440   -1.6250   -4.9620 c3        1 MOL     -0.430013
    100 C34        -1.6160   -4.0230   -6.0700 c3        1 MOL     -0.126757
    101 H42        -1.7130   -4.0700   -1.8460 hn        1 MOL      0.187183
    102 H43        -1.2110   -1.2850   -2.9710 h1        1 MOL      0.093860
    103 H44        -3.1610   -3.4260   -3.7310 hc        1 MOL     -0.007034
    104 H45        -0.7970   -4.1270   -4.0570 hc        1 MOL      0.065434
    105 H46        -0.4920   -2.6150   -4.9060 hc        1 MOL      0.065434
    106 H47        -3.5920   -2.1660   -5.7950 hc        1 MOL      0.128133
    107 H48        -3.9380   -1.1030   -4.4250 hc        1 MOL      0.128133
    108 H49        -2.3910   -0.8860   -5.2470 hc        1 MOL      0.128133
    109 H50        -1.9980   -3.3050   -6.7950 hc        1 MOL      0.029982
    110 H51        -0.8580   -4.7110   -6.4480 hc        1 MOL      0.029982
    111 H52        -2.4780   -4.6390   -5.8120 hc        1 MOL      0.029982
    112 N10        -3.6790   -2.0510   -1.0450 n         1 MOL     -0.445545
    113 C35        -4.6770   -1.5710   -0.0500 c3        1 MOL      0.020289
    114 C36        -5.7210   -2.6100    0.2490 c         1 MOL      0.502998
    115 O17        -5.4580   -3.7520   -0.0850 o         1 MOL     -0.517533
    116 C37        -3.9830   -1.2680    1.2740 c3        1 MOL      0.241540
    117 C38        -3.2300   -2.4620    1.9160 c3        1 MOL     -0.227171
    118 O18        -3.0520   -0.2280    1.0960 oh        1 MOL     -0.522359
    119 H53        -3.6840   -3.0560   -1.1900 hn        1 MOL      0.234767
    120 H54        -5.1960   -0.6650   -0.3730 h1        1 MOL      0.056883
    121 H55        -4.7320   -0.8740    1.9540 h1        1 MOL     -0.010370
    122 H56        -2.8970   -0.0150    2.0190 ho        1 MOL      0.376423
    123 H57        -3.9210   -3.1280    2.4320 hc        1 MOL      0.068183
    124 H58        -2.6550   -3.0090    1.1620 hc        1 MOL      0.068183
    125 H59        -2.5170   -2.1740    2.6880 hc        1 MOL      0.068183
    126 N11        -6.8630   -2.2320    0.8390 n         1 MOL     -0.400487
    127 C39        -8.0490   -3.0330    0.9440 c3        1 MOL     -0.048261
    128 C40        -9.4000   -2.3590    0.6600 c         1 MOL      0.706258
    129 O19       -10.2240   -2.9620    0.0130 o         1 MOL     -0.544859
    130 C41        -8.1130   -3.8060    2.2770 c3        1 MOL      0.257514
    131 C42        -9.2090   -4.8850    2.2830 c3        1 MOL     -0.462245
    132 O20        -8.5010   -2.9750    3.4250 oh        1 MOL     -0.642357
    133 H60        -6.9240   -1.2590    1.0900 hn        1 MOL      0.285563
    134 H61        -7.9780   -3.8220    0.1910 h1        1 MOL      0.095453
    135 H62        -7.1760   -4.2760    2.5790 h1        1 MOL      0.093483
    136 H63        -9.2780   -3.3210    3.8500 ho        1 MOL      0.394822
    137 H64        -9.0440   -5.5610    3.1180 hc        1 MOL      0.123204
    138 H65       -10.1990   -4.4190    2.3150 hc        1 MOL      0.123204
    139 H66        -9.1650   -5.4650    1.3660 hc        1 MOL      0.123204
    140 N12        -9.5220   -1.0770    1.0570 n         1 MOL     -0.667641
    141 C43       -10.4850   -0.1440    0.5220 c3        1 MOL      0.067609
    142 C44        -9.8240    1.2710    0.5680 c         1 MOL      0.530274
    143 O21        -9.0880    1.6130    1.5250 o         1 MOL     -0.485055
    144 C45       -11.7220   -0.3150    1.3890 c3        1 MOL     -0.254780
    145 C46       -12.8490    0.6410    1.1050 c3        1 MOL      0.030841
    146 C47       -13.9950    0.4680    2.1920 c3        1 MOL     -0.095114
    147 C48       -15.1190    1.4210    1.7770 c3        1 MOL      0.138944
    148 N13       -16.3010    1.2360    2.5740 n4        1 MOL     -0.165698
    149 H67        -8.8580   -0.7640    1.7550 hn        1 MOL      0.327052
    150 H68       -10.7280   -0.4450   -0.5010 h1        1 MOL      0.099543
    151 H69       -11.3930   -0.1550    2.4070 hc        1 MOL      0.129327
    152 H70       -12.2050   -1.2750    1.1950 hc        1 MOL      0.129327
    153 H71       -13.3710    0.4200    0.1740 hc        1 MOL      0.023474
    154 H72       -12.4280    1.6460    1.1770 hc        1 MOL      0.023474
    155 H73       -13.6330    0.6850    3.1930 hc        1 MOL      0.033855
    156 H74       -14.4390   -0.5290    2.1620 hc        1 MOL      0.033855
    157 H75       -15.3620    1.2720    0.7240 hx        1 MOL      0.052619
    158 H76       -14.9000    2.4910    1.8400 hx        1 MOL      0.052619
    159 H77       -17.0920    1.7680    2.2530 hn        1 MOL      0.224102
    160 H78       -16.5410    0.2600    2.6930 hn        1 MOL      0.224102
    161 H79       -16.1510    1.5480    3.5210 hn        1 MOL      0.224102
    162 N14       -10.1670    2.1440   -0.3740 n         1 MOL     -0.476358
    163 C49        -9.6550    3.5000   -0.3740 c3        1 MOL      0.365043
    164 C50        -8.1330    3.4870   -0.7350 c         1 MOL      0.265423
    165 O22        -7.3330    4.0350    0.0600 o         1 MOL     -0.508712
    166 C51       -10.4580    4.3910   -1.3840 c3        1 MOL     -0.141810
    167 C52       -11.8430    4.8110   -0.8400 c3        1 MOL     -0.223845
    168 C53       -12.6910    5.3210   -1.9980 c         1 MOL      0.711237
    169 O23       -12.8920    4.6210   -3.0420 o         1 MOL     -0.686666
    170 O24       -13.3510    6.3270   -1.8320 o         1 MOL     -0.686666
    171 H80       -10.9420    1.9360   -0.9970 hn        1 MOL      0.251134
    172 H81        -9.6930    3.8870    0.6460 h1        1 MOL      0.008877
    173 H82       -10.6410    3.8490   -2.3140 hc        1 MOL      0.077313
    174 H83        -9.9690    5.3370   -1.6030 hc        1 MOL      0.077313
    175 H84       -11.6320    5.6470   -0.1750 hc        1 MOL      0.038764
    176 H85       -12.3840    4.0160   -0.3260 hc        1 MOL      0.038764
    177 N15        -7.6020    2.8640   -1.8050 n         1 MOL     -0.299097
    178 C54        -8.2150    2.4130   -3.0830 c3        1 MOL     -0.055638
    179 H86        -7.5490    2.6580   -3.9110 h1        1 MOL      0.045051
    180 H87        -8.3730    1.3350   -3.0510 h1        1 MOL      0.045051
    181 H88        -9.1720    2.9170   -3.2260 h1        1 MOL      0.045051
    182 H89        -6.5990    2.8010   -1.8480 hn        1 MOL      0.296214
    183 Ca1         6.3100    4.8840    0.0320 Ca        1 MOL      1.719806
    184 O25         5.3730    7.2120    1.0170 oh        1 MOL     -0.814994
    185 H90         5.0430    7.2770    1.9140 ho        1 MOL      0.404734
    186 H91         5.4920    8.1150    0.7430 ho        1 MOL      0.404734
    187 O26         8.3190    6.7170   -0.4110 oh        1 MOL     -0.814994
    188 H92         8.7180    7.3670   -1.0010 ho        1 MOL      0.404734
    189 H93         9.0380    6.4170    0.1450 ho        1 MOL      0.404734
    190 O27         7.6490    5.3860    2.3530 oh        1 MOL     -0.814994
    191 H94         8.5450    5.2620    2.0330 ho        1 MOL      0.404734
    192 H95         7.7290    6.1020    2.9850 ho        1 MOL      0.404734
    193 O28         3.7730    4.4960    0.6300 oh        1 MOL     -0.814994
    194 H96         3.1550    4.7730    1.3110 ho        1 MOL      0.404734
    195 H97         3.2340    4.3300   -0.1330 ho        1 MOL      0.404734
    196 O29         5.0950    6.5320   -1.8500 oh        1 MOL     -0.814994
    197 H98         5.6520    6.8010   -2.5770 ho        1 MOL      0.404734
    198 H99         4.4040    7.1890   -1.8070 ho        1 MOL      0.404734
@<TRIPOS>BOND
     1    1    2 1   
     2    1    4 1   
     3    1    5 1   
     4    1    6 1   
     5    2    3 2   
     6    2    7 1   
     7    7    8 1   
     8    7   15 1   
     9    8    9 1   
    10    8   11 1   
    11    8   16 1   
    12    9   10 2   
    13    9   19 1   
    14   11   12 1   
    15   11   17 1   
    16   11   18 1   
    17   12   13 1   
    18   12   14 1   
    19   19   20 1   
    20   19   28 1   
    21   20   21 1   
    22   20   23 1   
    23   20   29 1   
    24   21   22 2   
    25   21   41 1   
    26   23   24 1   
    27   23   30 1   
    28   23   31 1   
    29   24   25 1   
    30   24   32 1   
    31   24   33 1   
    32   25   26 1   
    33   25   34 1   
    34   25   35 1   
    35   26   27 1   
    36   26   36 1   
    37   26   37 1   
    38   27   38 1   
    39   27   39 1   
    40   27   40 1   
    41   41   42 1   
    42   41   49 1   
    43   42   43 1   
    44   42   45 1   
    45   42   50 1   
    46   43   44 2   
    47   43   53 1   
    48   45   46 1   
    49   45   51 1   
    50   45   52 1   
    51   46   47 1   
    52   46   48 1   
    53   53   54 1   
    54   53   57 1   
    55   54   55 1   
    56   54   58 1   
    57   54   59 1   
    58   55   56 2   
    59   55   60 1   
    60   60   61 1   
    61   60   68 1   
    62   61   62 1   
    63   61   64 1   
    64   61   69 1   
    65   62   63 2   
    66   62   72 1   
    67   64   65 1   
    68   64   70 1   
    69   64   71 1   
    70   65   66 1   
    71   65   67 1   
    72   72   73 1   
    73   72   76 1   
    74   73   74 1   
    75   73   77 1   
    76   73   78 1   
    77   74   75 2   
    78   74   79 1   
    79   79   80 1   
    80   79   86 1   
    81   80   81 1   
    82   80   83 1   
    83   80   87 1   
    84   81   82 2   
    85   81   93 1   
    86   83   84 1   
    87   83   85 1   
    88   83   88 1   
    89   84   90 1   
    90   84   91 1   
    91   84   92 1   
    92   85   89 1   
    93   93   94 1   
    94   93  101 1   
    95   94   95 1   
    96   94   97 1   
    97   94  102 1   
    98   95   96 2   
    99   95  112 1   
   100   97   98 1   
   101   97   99 1   
   102   97  103 1   
   103   98  100 1   
   104   98  104 1   
   105   98  105 1   
   106   99  106 1   
   107   99  107 1   
   108   99  108 1   
   109  100  109 1   
   110  100  110 1   
   111  100  111 1   
   112  112  113 1   
   113  112  119 1   
   114  113  114 1   
   115  113  116 1   
   116  113  120 1   
   117  114  115 2   
   118  114  126 1   
   119  116  117 1   
   120  116  118 1   
   121  116  121 1   
   122  117  123 1   
   123  117  124 1   
   124  117  125 1   
   125  118  122 1   
   126  126  127 1   
   127  126  133 1   
   128  127  128 1   
   129  127  130 1   
   130  127  134 1   
   131  128  129 2   
   132  128  140 1   
   133  130  131 1   
   134  130  132 1   
   135  130  135 1   
   136  131  137 1   
   137  131  138 1   
   138  131  139 1   
   139  132  136 1   
   140  140  141 1   
   141  140  149 1   
   142  141  142 1   
   143  141  144 1   
   144  141  150 1   
   145  142  143 2   
   146  142  162 1   
   147  144  145 1   
   148  144  151 1   
   149  144  152 1   
   150  145  146 1   
   151  145  153 1   
   152  145  154 1   
   153  146  147 1   
   154  146  155 1   
   155  146  156 1   
   156  147  148 1   
   157  147  157 1   
   158  147  158 1   
   159  148  159 1   
   160  148  160 1   
   161  148  161 1   
   162  162  163 1   
   163  162  171 1   
   164  163  164 1   
   165  163  166 1   
   166  163  172 1   
   167  164  165 2   
   168  164  177 1   
   169  166  167 1   
   170  166  173 1   
   171  166  174 1   
   172  167  168 1   
   173  167  175 1   
   174  167  176 1   
   175  168  169 1   
   176  168  170 1   
   177  177  178 1   
   178  177  182 1   
   179  178  179 1   
   180  178  180 1   
   181  178  181 1   
   182  184  185 1   
   183  184  186 1   
   184  187  188 1   
   185  187  189 1   
   186  190  191 1   
   187  190  192 1   
   188  193  194 1   
   189  193  195 1   
   190  196  197 1   
   191  196  198 1   
@<TRIPOS>SUBSTRUCTURE
     1 MOL         1 TEMP              0 ****  ****    0 ROOT
