@<TRIPOS>MOLECULE
MOL
  195   189     1     0     0
SMALL
resp


@<TRIPOS>ATOM
      1 C1         -6.0680   -3.3710    5.4850 c3        1 MOL     -0.255113
      2 C2         -5.4070   -2.6860    4.1960 c         1 MOL      0.686678
      3 O1         -5.0450   -3.4230    3.2810 o         1 MOL     -0.575824
      4 H1         -6.1320   -2.6410    6.2920 hc        1 MOL      0.062668
      5 H2         -7.0680   -3.7260    5.2350 hc        1 MOL      0.062668
      6 H3         -5.4530   -4.2120    5.8050 hc        1 MOL      0.062668
      7 N1         -5.4010   -1.3660    4.0430 n         1 MOL     -0.513189
      8 C3         -5.0520   -0.7850    2.7120 c3        1 MOL      0.389876
      9 C4         -3.5240   -0.7990    2.3340 c         1 MOL     -0.104551
     10 O2         -3.2290   -0.3350    1.2170 o         1 MOL     -0.142115
     11 C5         -5.4730    0.6790    2.7370 c3        1 MOL     -0.176532
     12 C6         -6.9690    0.8820    2.8110 c         1 MOL      0.707040
     13 O3         -7.6020    1.2350    1.7740 o         1 MOL     -0.709143
     14 O4         -7.5970    0.6980    3.9010 o         1 MOL     -0.709143
     15 H4         -5.9320   -0.7900    4.6830 hn        1 MOL      0.248219
     16 H5         -5.6350   -1.3390    1.9720 h1        1 MOL      0.059012
     17 H6         -5.1520    1.2220    1.8430 hc        1 MOL     -0.026045
     18 H7         -5.0600    1.1410    3.6360 hc        1 MOL     -0.026045
     19 N2         -2.6990   -1.3610    3.1770 n         1 MOL     -0.085664
     20 C7         -1.2640   -1.1620    3.1550 c3        1 MOL      0.147834
     21 C8         -0.4740   -2.3760    2.5430 c         1 MOL      0.500492
     22 O5         -0.5820   -3.4740    3.1020 o         1 MOL     -0.565404
     23 C9         -0.7520   -0.6200    4.5190 c3        1 MOL     -0.288234
     24 C10        -1.4820    0.6740    4.7910 c3        1 MOL      0.148365
     25 C11        -1.0830    1.1760    6.1980 c3        1 MOL      0.011458
     26 C12        -1.2670    2.7250    6.3270 c3        1 MOL      0.019724
     27 N3         -0.0760    3.4550    5.7470 n4        1 MOL     -0.455698
     28 H8         -3.1350   -1.6960    4.0250 hn        1 MOL      0.161889
     29 H9         -1.1280   -0.2990    2.5030 h1        1 MOL     -0.071202
     30 H10         0.3220   -0.4410    4.3730 hc        1 MOL      0.088703
     31 H11        -0.8050   -1.3450    5.3380 hc        1 MOL      0.088703
     32 H12        -2.5600    0.4900    4.7860 hc        1 MOL      0.002297
     33 H13        -1.3010    1.4100    4.0130 hc        1 MOL      0.002297
     34 H14        -0.0470    0.8910    6.3780 hc        1 MOL      0.025473
     35 H15        -1.7090    0.8100    7.0070 hc        1 MOL      0.025473
     36 H16        -1.2850    2.9040    7.4040 hx        1 MOL      0.083370
     37 H17        -2.2600    2.9840    5.9600 hx        1 MOL      0.083370
     38 H18        -0.2800    4.4370    5.8110 hn        1 MOL      0.355103
     39 H19         0.8180    3.2280    6.1690 hn        1 MOL      0.355103
     40 H20         0.0100    3.3020    4.7490 hn        1 MOL      0.355103
     41 N4          0.3380   -2.2260    1.5610 n         1 MOL     -0.196968
     42 C13         0.9430   -1.0950    0.9150 c3        1 MOL     -0.350075
     43 C14         1.3330    0.0730    1.8320 c         1 MOL      0.713924
     44 O6          0.6110    1.0580    2.0490 o         1 MOL     -0.606995
     45 C15         0.2050   -0.6190   -0.3200 c3        1 MOL     -0.099410
     46 C16         0.2750   -1.5560   -1.4880 c         1 MOL      0.422844
     47 O7          1.0370   -2.5420   -1.4830 o         1 MOL     -0.652644
     48 O8         -0.3410   -1.2760   -2.5470 o         1 MOL     -0.652644
     49 H21         0.8170   -3.0910    1.3360 hn        1 MOL      0.181673
     50 H22         1.8790   -1.4060    0.4410 h1        1 MOL      0.039590
     51 H23         0.4990    0.3880   -0.6040 hc        1 MOL      0.137649
     52 H24        -0.8540   -0.3770   -0.1930 hc        1 MOL      0.137649
     53 N5          2.4750    0.0020    2.4510 n         1 MOL     -0.497473
     54 C17         3.5900   -1.0000    2.3230 c3        1 MOL      0.053862
     55 C18         4.8560   -0.5910    3.0590 c         1 MOL      0.539799
     56 O9          4.9850    0.3950    3.6810 o         1 MOL     -0.540040
     57 H25         2.6460    0.8080    3.0450 hn        1 MOL      0.274696
     58 H26         3.8600   -1.1830    1.2810 h1        1 MOL      0.113485
     59 H27         3.1640   -1.9540    2.6490 h1        1 MOL      0.113485
     60 N6          5.8840   -1.3850    2.9650 n         1 MOL     -0.441206
     61 C19         5.9750   -2.6260    2.1140 c3        1 MOL     -0.083778
     62 C20         6.8740   -2.2130    0.9020 c         1 MOL      0.565723
     63 O10         7.7510   -1.3410    0.9440 o         1 MOL     -0.457799
     64 C21         6.5380   -3.7720    2.9210 c3        1 MOL     -0.078552
     65 C22         7.6080   -3.4180    3.9530 c         1 MOL      0.599170
     66 O11         8.8950   -3.5650    3.5960 o         1 MOL     -0.646173
     67 O12         7.2180   -3.0200    5.0890 o         1 MOL     -0.646173
     68 H28         6.6730   -1.0100    3.4570 hn        1 MOL      0.355308
     69 H29         5.0620   -3.0160    1.6630 h1        1 MOL      0.027964
     70 H30         6.8180   -4.5530    2.2100 hc        1 MOL      0.010552
     71 H31         5.7510   -4.1750    3.5400 hc        1 MOL      0.010552
     72 N7          6.6700   -2.8790   -0.2820 n         1 MOL     -0.440411
     73 C23         7.1260   -2.6030   -1.6870 c3        1 MOL     -0.191777
     74 C24         6.5250   -1.4020   -2.4100 c         1 MOL      0.530715
     75 O13         6.9530   -1.0450   -3.5620 o         1 MOL     -0.549069
     76 H32         6.2510   -3.7780   -0.1140 hn        1 MOL      0.275739
     77 H33         6.9050   -3.4110   -2.3720 h1        1 MOL      0.137835
     78 H34         8.2070   -2.4950   -1.6730 h1        1 MOL      0.137835
     79 N8          5.6260   -0.6040   -1.7610 n         1 MOL     -0.383012
     80 C25         4.9520    0.5990   -2.3140 c3        1 MOL      0.055014
     81 C26         4.6250    1.6650   -1.2240 c         1 MOL      0.601259
     82 O14         4.1890    1.3690   -0.1190 o         1 MOL     -0.494411
     83 C27         3.6580    0.3160   -3.0650 c3        1 MOL      0.308263
     84 C28         3.8100   -0.7570   -4.1260 c3        1 MOL      0.085462
     85 O15         3.2930    1.5330   -3.7260 oh        1 MOL     -0.700742
     86 H35         5.4810   -0.7310   -0.7720 hn        1 MOL      0.170200
     87 H36         5.5860    1.1230   -3.0300 h1        1 MOL      0.072261
     88 H37         2.9750    0.0560   -2.2600 h1        1 MOL      0.029126
     89 H38         2.3980    1.4190   -4.0480 ho        1 MOL      0.437984
     90 H39         4.7140   -0.5860   -4.7070 hc        1 MOL     -0.032228
     91 H40         3.9540   -1.6940   -3.6020 hc        1 MOL     -0.032228
     92 H41         2.9340   -0.8390   -4.7740 hc        1 MOL     -0.032228
     93 N9          4.9110    2.9350   -1.5690 n         1 MOL     -0.442117
     94 C29         5.1160    4.0330   -0.6470 c3        1 MOL     -0.058022
     95 C30         3.9030    4.7870   -0.1790 c         1 MOL      0.405814
     96 O16         4.1060    5.7110    0.6130 o         1 MOL     -0.525262
     97 C31         6.3460    4.8490   -1.0050 c3        1 MOL      0.073471
     98 C32         6.3660    5.5160   -2.3610 c3        1 MOL      0.236874
     99 C33         7.5740    3.9600   -0.9030 c3        1 MOL     -0.223698
    100 C34         5.1070    6.4400   -2.6280 c3        1 MOL     -0.174648
    101 H42         5.1860    3.1360   -2.5150 hn        1 MOL      0.315710
    102 H43         5.4190    3.5420    0.2710 h1        1 MOL      0.128063
    103 H44         6.5020    5.6330   -0.2680 hc        1 MOL      0.052415
    104 H45         6.3600    4.7570   -3.1390 hc        1 MOL     -0.071663
    105 H46         7.3340    6.0160   -2.3750 hc        1 MOL     -0.071663
    106 H47         8.5300    4.4540   -1.1080 hc        1 MOL      0.054775
    107 H48         7.6570    3.4580    0.0620 hc        1 MOL      0.054775
    108 H49         7.5750    3.1400   -1.6240 hc        1 MOL      0.054775
    109 H50         4.9520    7.1440   -1.8170 hc        1 MOL      0.035280
    110 H51         5.3100    6.9130   -3.5870 hc        1 MOL      0.035280
    111 H52         4.2300    5.8100   -2.8100 hc        1 MOL      0.035280
    112 N10         2.7390    4.3470   -0.6580 n         1 MOL     -0.229976
    113 C35         1.4180    4.9020   -0.5010 c3        1 MOL      0.137887
    114 C36         0.3220    3.8260   -0.2210 c         1 MOL      0.333292
    115 O17         0.3070    2.7930   -0.8860 o         1 MOL     -0.463196
    116 C37         1.0000    5.7740   -1.6560 c3        1 MOL      0.334718
    117 C38         0.8470    5.1250   -3.0830 c3        1 MOL     -0.411625
    118 O18         1.7680    6.9570   -1.6710 oh        1 MOL     -0.612422
    119 H53         2.9000    3.6240   -1.3370 hn        1 MOL      0.134231
    120 H54         1.3520    5.5880    0.3440 h1        1 MOL      0.050275
    121 H55         0.0370    6.1170   -1.2670 h1        1 MOL     -0.025722
    122 H56         1.3220    7.4400   -2.3680 ho        1 MOL      0.383578
    123 H57         1.7690    4.5570   -3.2340 hc        1 MOL      0.115673
    124 H58        -0.0450    4.5130   -3.0650 hc        1 MOL      0.115673
    125 H59         0.5930    5.8610   -3.8570 hc        1 MOL      0.115673
    126 N11        -0.7250    4.0340    0.6050 n         1 MOL     -0.389851
    127 C39        -1.8990    3.1250    0.6930 c3        1 MOL     -0.023346
    128 C40        -2.6270    2.8990   -0.6610 c         1 MOL      0.462111
    129 O19        -2.5720    3.7970   -1.5500 o         1 MOL     -0.519880
    130 C41        -2.9430    3.5440    1.6960 c3        1 MOL      0.215694
    131 C42        -3.8730    4.7040    1.2550 c3        1 MOL     -0.442468
    132 O20        -2.2790    4.0090    2.8700 oh        1 MOL     -0.666515
    133 H60        -0.6620    4.8100    1.2510 hn        1 MOL      0.268511
    134 H61        -1.4090    2.1950    0.9800 h1        1 MOL      0.224402
    135 H62        -3.6190    2.7190    1.9730 h1        1 MOL      0.139086
    136 H63        -2.7310    4.8060    3.1530 ho        1 MOL      0.406365
    137 H64        -4.4600    4.5290    0.3510 hc        1 MOL      0.121861
    138 H65        -4.5360    4.8590    2.1030 hc        1 MOL      0.121861
    139 H66        -3.2600    5.5580    0.9440 hc        1 MOL      0.121861
    140 N12        -3.3860    1.7980   -0.8360 n         1 MOL     -0.380396
    141 C43        -4.2370    1.5810   -2.0320 c3        1 MOL      0.218896
    142 C44        -4.2860    0.1360   -2.4780 c         1 MOL      0.457846
    143 O21        -4.3710   -0.2000   -3.6690 o         1 MOL     -0.622604
    144 C45        -5.6080    2.2200   -1.7740 c3        1 MOL     -0.105702
    145 C46        -6.3910    2.4690   -3.0830 c3        1 MOL     -0.061432
    146 C47        -7.7160    3.2210   -2.7180 c3        1 MOL     -0.106608
    147 C48        -8.4520    3.6050   -4.0020 c3        1 MOL      0.174695
    148 N13        -9.5830    4.4710   -3.7060 n4        1 MOL     -0.357891
    149 H67        -3.2570    1.0170   -0.2100 hn        1 MOL      0.160506
    150 H68        -3.8720    2.1680   -2.8700 h1        1 MOL      0.036590
    151 H69        -5.4630    3.2590   -1.4800 hc        1 MOL      0.046812
    152 H70        -6.1490    1.6680   -1.0030 hc        1 MOL      0.046812
    153 H71        -6.7780    1.5390   -3.4840 hc        1 MOL      0.044762
    154 H72        -5.8060    3.0650   -3.7880 hc        1 MOL      0.044762
    155 H73        -7.6320    4.1600   -2.1810 hc        1 MOL      0.072639
    156 H74        -8.4200    2.5240   -2.2540 hc        1 MOL      0.072639
    157 H75        -8.8400    2.7630   -4.5740 hx        1 MOL      0.040035
    158 H76        -7.8330    4.1800   -4.6940 hx        1 MOL      0.040035
    159 H77       -10.0280    4.7860   -4.5550 hn        1 MOL      0.300024
    160 H78       -10.3500    4.0470   -3.2060 hn        1 MOL      0.300024
    161 H79        -9.2370    5.2500   -3.1680 hn        1 MOL      0.300024
    162 N14        -4.0590   -0.8310   -1.5670 n         1 MOL     -0.043782
    163 C49        -4.1610   -2.2770   -1.8130 c3        1 MOL     -0.031423
    164 C50        -5.6240   -2.7110   -1.6740 c         1 MOL      0.283490
    165 O22        -6.2940   -2.4570   -0.6360 o         1 MOL     -0.474542
    166 C51        -3.2340   -3.0330   -0.8250 c3        1 MOL      0.343131
    167 C52        -3.0850   -4.5160   -1.0530 c3        1 MOL     -0.130882
    168 C53        -2.7360   -4.7860   -2.5270 c         1 MOL      0.791653
    169 O23        -3.6510   -5.1640   -3.2620 o         1 MOL     -0.772413
    170 O24        -1.5450   -4.8050   -2.8190 o         1 MOL     -0.772413
    171 H80        -3.9530   -0.5080   -0.6160 hn        1 MOL      0.013337
    172 H81        -3.8840   -2.5250   -2.8370 h1        1 MOL      0.092634
    173 H82        -3.6090   -2.7960    0.1680 hc        1 MOL     -0.107283
    174 H83        -2.2480   -2.5980   -0.9820 hc        1 MOL     -0.107283
    175 H84        -3.9840   -5.0360   -0.7040 hc        1 MOL      0.013742
    176 H85        -2.2630   -4.8200   -0.4020 hc        1 MOL      0.013742
    177 N15        -6.1400   -3.3340   -2.7270 n         1 MOL     -0.221757
    178 C54        -7.4620   -4.0500   -2.7440 c3        1 MOL     -0.098888
    179 H86        -7.3160   -5.0730   -3.0930 h1        1 MOL      0.072406
    180 H87        -7.8800   -4.0670   -1.7370 h1        1 MOL      0.072406
    181 H88        -8.1490   -3.5320   -3.4140 h1        1 MOL      0.072406
    182 H89        -5.5880   -3.4680   -3.5590 hn        1 MOL      0.271131
    183 Ca1         0.9580   -5.0060   -2.3350 Ca        1 MOL      1.763561
    184 O25         0.4160   -3.0970   -4.2970 oh        1 MOL     -0.888786
    185 H90         0.2450   -2.2850   -3.8200 ho        1 MOL      0.436656
    186 H91        -0.1050   -3.0160   -5.1000 ho        1 MOL      0.436656
    187 O26        -0.1380   -7.3760   -1.6430 oh        1 MOL     -0.888786
    188 H92         0.6140   -7.9640   -1.5630 ho        1 MOL      0.436656
    189 H93        -0.8910   -7.9490   -1.7690 ho        1 MOL      0.436656
    190 O27         1.4600   -6.4480   -4.4050 oh        1 MOL     -0.888786
    191 H94         1.2040   -6.3580   -5.3160 ho        1 MOL      0.436656
    192 H95         1.4960   -7.3860   -4.2450 ho        1 MOL      0.436656
    193 O28         3.1370   -4.1340   -3.4920 oh        1 MOL     -0.888786
    194 H96         4.0260   -4.4650   -3.4400 ho        1 MOL      0.436656
    195 H97         3.0770   -3.7610   -4.3820 ho        1 MOL      0.436656
@<TRIPOS>BOND
     1    1    2 1   
     2    1    4 1   
     3    1    5 1   
     4    1    6 1   
     5    2    3 2   
     6    2    7 1   
     7    7    8 1   
     8    7   15 1   
     9    8    9 1   
    10    8   11 1   
    11    8   16 1   
    12    9   10 2   
    13    9   19 1   
    14   11   12 1   
    15   11   17 1   
    16   11   18 1   
    17   12   13 1   
    18   12   14 1   
    19   19   20 1   
    20   19   28 1   
    21   20   21 1   
    22   20   23 1   
    23   20   29 1   
    24   21   22 2   
    25   21   41 1   
    26   23   24 1   
    27   23   30 1   
    28   23   31 1   
    29   24   25 1   
    30   24   32 1   
    31   24   33 1   
    32   25   26 1   
    33   25   34 1   
    34   25   35 1   
    35   26   27 1   
    36   26   36 1   
    37   26   37 1   
    38   27   38 1   
    39   27   39 1   
    40   27   40 1   
    41   41   42 1   
    42   41   49 1   
    43   42   43 1   
    44   42   45 1   
    45   42   50 1   
    46   43   44 2   
    47   43   53 1   
    48   45   46 1   
    49   45   51 1   
    50   45   52 1   
    51   46   47 1   
    52   46   48 1   
    53   53   54 1   
    54   53   57 1   
    55   54   55 1   
    56   54   58 1   
    57   54   59 1   
    58   55   56 2   
    59   55   60 1   
    60   60   61 1   
    61   60   68 1   
    62   61   62 1   
    63   61   64 1   
    64   61   69 1   
    65   62   63 2   
    66   62   72 1   
    67   64   65 1   
    68   64   70 1   
    69   64   71 1   
    70   65   66 1   
    71   65   67 1   
    72   72   73 1   
    73   72   76 1   
    74   73   74 1   
    75   73   77 1   
    76   73   78 1   
    77   74   75 2   
    78   74   79 1   
    79   79   80 1   
    80   79   86 1   
    81   80   81 1   
    82   80   83 1   
    83   80   87 1   
    84   81   82 2   
    85   81   93 1   
    86   83   84 1   
    87   83   85 1   
    88   83   88 1   
    89   84   90 1   
    90   84   91 1   
    91   84   92 1   
    92   85   89 1   
    93   93   94 1   
    94   93  101 1   
    95   94   95 1   
    96   94   97 1   
    97   94  102 1   
    98   95   96 2   
    99   95  112 1   
   100   97   98 1   
   101   97   99 1   
   102   97  103 1   
   103   98  100 1   
   104   98  104 1   
   105   98  105 1   
   106   99  106 1   
   107   99  107 1   
   108   99  108 1   
   109  100  109 1   
   110  100  110 1   
   111  100  111 1   
   112  112  113 1   
   113  112  119 1   
   114  113  114 1   
   115  113  116 1   
   116  113  120 1   
   117  114  115 2   
   118  114  126 1   
   119  116  117 1   
   120  116  118 1   
   121  116  121 1   
   122  117  123 1   
   123  117  124 1   
   124  117  125 1   
   125  118  122 1   
   126  126  127 1   
   127  126  133 1   
   128  127  128 1   
   129  127  130 1   
   130  127  134 1   
   131  128  129 2   
   132  128  140 1   
   133  130  131 1   
   134  130  132 1   
   135  130  135 1   
   136  131  137 1   
   137  131  138 1   
   138  131  139 1   
   139  132  136 1   
   140  140  141 1   
   141  140  149 1   
   142  141  142 1   
   143  141  144 1   
   144  141  150 1   
   145  142  143 2   
   146  142  162 1   
   147  144  145 1   
   148  144  151 1   
   149  144  152 1   
   150  145  146 1   
   151  145  153 1   
   152  145  154 1   
   153  146  147 1   
   154  146  155 1   
   155  146  156 1   
   156  147  148 1   
   157  147  157 1   
   158  147  158 1   
   159  148  159 1   
   160  148  160 1   
   161  148  161 1   
   162  162  163 1   
   163  162  171 1   
   164  163  164 1   
   165  163  166 1   
   166  163  172 1   
   167  164  165 2   
   168  164  177 1   
   169  166  167 1   
   170  166  173 1   
   171  166  174 1   
   172  167  168 1   
   173  167  175 1   
   174  167  176 1   
   175  168  169 1   
   176  168  170 1   
   177  177  178 1   
   178  177  182 1   
   179  178  179 1   
   180  178  180 1   
   181  178  181 1   
   182  184  185 1   
   183  184  186 1   
   184  187  188 1   
   185  187  189 1   
   186  190  191 1   
   187  190  192 1   
   188  193  194 1   
   189  193  195 1   
@<TRIPOS>SUBSTRUCTURE
     1 MOL         1 TEMP              0 ****  ****    0 ROOT
