@<TRIPOS>MOLECULE
MOL
  179   176     1     0     0
SMALL
resp


@<TRIPOS>ATOM
      1 C1          0.9420   -3.6370    6.3110 c3        1 MOL     -0.381099
      2 C2          1.1020   -3.4440    4.7850 c         1 MOL      0.717068
      3 O1          0.2400   -3.8110    4.0020 o         1 MOL     -0.545303
      4 H1         -0.1150   -3.7560    6.5530 hc        1 MOL      0.111530
      5 H2          1.4880   -4.5270    6.6250 hc        1 MOL      0.111530
      6 H3          1.3370   -2.7650    6.8320 hc        1 MOL      0.111530
      7 N1          2.2520   -2.8510    4.3640 n         1 MOL     -0.585966
      8 C3          2.5830   -2.6610    2.9550 c3        1 MOL      0.033994
      9 C4          2.9360   -3.9760    2.2120 c         1 MOL      0.607318
     10 O2          3.6560   -4.8420    2.6880 o         1 MOL     -0.565864
     11 C5          3.6340   -1.5730    2.7740 c3        1 MOL     -0.054635
     12 C6          3.6500   -0.9690    1.3950 c         1 MOL      0.655147
     13 O3          3.8540    0.2450    1.2580 o         1 MOL     -0.659280
     14 O4          3.4380   -1.6330    0.3810 o         1 MOL     -0.659280
     15 H4          2.9940   -2.6940    5.0230 hn        1 MOL      0.324605
     16 H5          1.6940   -2.2640    2.4690 h1        1 MOL     -0.039828
     17 H6          4.6830   -1.8010    2.9370 hc        1 MOL      0.030703
     18 H7          3.3670   -0.6960    3.3640 hc        1 MOL      0.030703
     19 N2          2.5000   -4.0670    0.9430 n         1 MOL     -0.388311
     20 C7          2.7140   -5.2550    0.0070 c3        1 MOL      0.033955
     21 C8          4.0340   -5.1360   -0.8160 c         1 MOL      0.562885
     22 O5          4.4760   -6.1110   -1.3860 o         1 MOL     -0.563199
     23 C9          1.4610   -5.4360   -0.8850 c3        1 MOL     -0.164788
     24 C10         1.5030   -6.8260   -1.5280 c3        1 MOL      0.104931
     25 C11         0.0760   -7.2090   -2.0070 c3        1 MOL     -0.157955
     26 C12         0.1640   -8.4270   -2.8870 c3        1 MOL      0.033797
     27 N3          0.3730   -9.7360   -2.2380 n4        1 MOL     -0.288917
     28 H8          2.1910   -3.2200    0.4840 hn        1 MOL      0.264843
     29 H9          2.8560   -6.1610    0.5980 h1        1 MOL      0.077711
     30 H10         1.3440   -4.7410   -1.7240 hc        1 MOL      0.039153
     31 H11         0.6370   -5.2500   -0.1900 hc        1 MOL      0.039153
     32 H12         1.9400   -7.6180   -0.9120 hc        1 MOL      0.021224
     33 H13         2.2330   -6.8230   -2.3330 hc        1 MOL      0.021224
     34 H14        -0.3700   -6.4690   -2.6810 hc        1 MOL      0.086753
     35 H15        -0.6330   -7.3160   -1.1870 hc        1 MOL      0.086753
     36 H16         1.0600   -8.3590   -3.5090 hx        1 MOL      0.074992
     37 H17        -0.6750   -8.4530   -3.5770 hx        1 MOL      0.074992
     38 H18        -0.3310   -9.9110   -1.5390 hn        1 MOL      0.262069
     39 H19         0.2430  -10.5190   -2.8570 hn        1 MOL      0.262069
     40 H20         1.3190   -9.7390   -1.8890 hn        1 MOL      0.262069
     41 N4          4.5580   -3.8610   -0.8980 n         1 MOL     -0.417346
     42 C13         5.6450   -3.5300   -1.8300 c3        1 MOL      0.121272
     43 C14         6.6730   -2.6760   -1.0630 c         1 MOL      0.455514
     44 O6          7.8010   -2.6640   -1.5030 o         1 MOL     -0.542198
     45 C15         5.0120   -2.8250   -3.0080 c3        1 MOL      0.002124
     46 C16         4.2110   -1.5680   -2.7090 c         1 MOL      0.772794
     47 O7          2.9510   -1.6590   -2.7370 o         1 MOL     -0.810582
     48 O8          4.7680   -0.5550   -2.2890 o         1 MOL     -0.810582
     49 H21         4.1010   -3.0470   -0.4950 hn        1 MOL      0.144141
     50 H22         6.1300   -4.4110   -2.2400 h1        1 MOL      0.075258
     51 H23         4.3920   -3.5350   -3.5520 hc        1 MOL      0.005564
     52 H24         5.8000   -2.6180   -3.7290 hc        1 MOL      0.005564
     53 N5          6.3150   -2.0030    0.0360 n         1 MOL     -0.208164
     54 C17         7.1610   -1.1540    0.8700 c3        1 MOL     -0.296073
     55 C18         7.2660    0.2650    0.4450 c         1 MOL      0.514011
     56 O9          7.7970    1.1030    1.1840 o         1 MOL     -0.558266
     57 H25         5.3300   -1.9730    0.2680 hn        1 MOL      0.131397
     58 H26         8.1170   -1.6760    0.9200 h1        1 MOL      0.160142
     59 H27         6.8570   -1.1830    1.9140 h1        1 MOL      0.160142
     60 N6          6.7540    0.6350   -0.6980 n         1 MOL     -0.106884
     61 C19         6.8790    2.0240   -1.2460 c3        1 MOL     -0.069446
     62 C20         5.6470    2.8860   -1.2670 c         1 MOL      0.735414
     63 O10         4.5040    2.3570   -1.1300 o         1 MOL     -0.700093
     64 C21         7.3430    1.9140   -2.7110 c3        1 MOL     -0.321283
     65 C22         8.7090    1.4250   -2.9630 c         1 MOL      0.743820
     66 N7          8.9350    0.6300   -3.9810 n         1 MOL     -0.850454
     67 O11         9.5930    1.7390   -2.2470 o         1 MOL     -0.545533
     68 H28         6.0520    0.0280   -1.1130 hn        1 MOL      0.203945
     69 H29         7.6130    2.5700   -0.6550 h1        1 MOL      0.075102
     70 H30         7.2930    2.8830   -3.2190 hc        1 MOL      0.072062
     71 H31         6.6180    1.3650   -3.3060 hc        1 MOL      0.072062
     72 H32         8.1610    0.3020   -4.5470 hn        1 MOL      0.382978
     73 H33         9.8640    0.2610   -4.0700 hn        1 MOL      0.382978
     74 N8          5.8040    4.2310   -1.2740 n         1 MOL     -0.414337
     75 C23         4.8140    5.2920   -1.2920 c3        1 MOL     -0.246420
     76 C24         3.7810    5.2510   -0.1940 c         1 MOL      0.729141
     77 O12         4.1220    5.2700    0.9900 o         1 MOL     -0.515925
     78 H34         6.7450    4.5890   -1.3150 hn        1 MOL      0.332360
     79 H35         4.2320    5.2110   -2.2070 h1        1 MOL      0.121090
     80 H36         5.3370    6.2520   -1.2590 h1        1 MOL      0.121090
     81 N9          2.4460    5.1890   -0.4740 n         1 MOL     -0.722024
     82 C25         1.3790    4.9590    0.5830 c3        1 MOL      0.267006
     83 C26         1.1620    3.5000    0.9690 c         1 MOL      0.536367
     84 O13         1.8840    2.6270    0.5120 o         1 MOL     -0.536191
     85 C27         0.0660    5.5860    0.1830 c3        1 MOL     -0.154613
     86 C28        -0.0440    7.0320   -0.1450 ca        1 MOL      0.040906
     87 C29         0.1640    7.9690    0.8720 ca        1 MOL     -0.080483
     88 C30        -0.3190    7.4120   -1.4550 ca        1 MOL     -0.080483
     89 C31        -0.0120    9.3760    0.5600 ca        1 MOL     -0.348445
     90 C32        -0.4820    8.7400   -1.7960 ca        1 MOL     -0.348445
     91 C33        -0.3380    9.6910   -0.8120 ca        1 MOL      0.421339
     92 O14        -0.5850   11.0020   -1.1480 oh        1 MOL     -0.511869
     93 H37         2.0920    5.2750   -1.4150 hn        1 MOL      0.326763
     94 H38         1.6130    5.5360    1.4770 h1        1 MOL      0.042996
     95 H39        -0.6510    5.4620    1.0000 hc        1 MOL      0.027923
     96 H40        -0.2780    4.9160   -0.6040 hc        1 MOL      0.027923
     97 H41         0.3200    7.6790    1.8960 ha        1 MOL      0.118378
     98 H42        -0.5610    6.6040   -2.1290 ha        1 MOL      0.118378
     99 H43        -0.0440   10.1000    1.3530 ha        1 MOL      0.185273
    100 H44        -0.6550    9.0360   -2.8140 ha        1 MOL      0.185273
    101 H45        -0.5580   11.6190   -0.4150 ho        1 MOL      0.376756
    102 N10         0.2940    3.2540    2.0240 n         1 MOL     -0.657926
    103 C34         0.0700    1.9200    2.7020 c3        1 MOL      0.079574
    104 C35        -0.1100    0.8370    1.6740 c         1 MOL      0.115017
    105 O15         0.8860    0.3000    1.1350 o         1 MOL      0.033750
    106 C36         1.2130    1.5130    3.6490 c3        1 MOL      0.467877
    107 C37         0.7610    0.1870    4.4420 c3        1 MOL     -0.322535
    108 C38         1.5710    2.6190    4.7020 c3        1 MOL     -0.386886
    109 C39        -0.4800    0.2650    5.3830 c3        1 MOL     -0.327318
    110 H46        -0.0910    4.0710    2.4620 hn        1 MOL      0.352247
    111 H47        -0.8550    2.0490    3.2530 h1        1 MOL      0.057120
    112 H48         2.1120    1.2620    3.0970 hc        1 MOL     -0.068544
    113 H49         1.6350   -0.0470    5.0490 hc        1 MOL      0.117808
    114 H50         0.5120   -0.5980    3.7230 hc        1 MOL      0.117808
    115 H51         0.6820    3.0910    5.1390 hc        1 MOL      0.089733
    116 H52         2.2340    2.1280    5.4110 hc        1 MOL      0.089733
    117 H53         2.0760    3.4310    4.1620 hc        1 MOL      0.089733
    118 H54        -0.3190    0.8400    6.2960 hc        1 MOL      0.093112
    119 H55        -1.2930    0.6070    4.7630 hc        1 MOL      0.093112
    120 H56        -0.7390   -0.7220    5.7600 hc        1 MOL      0.093112
    121 N11        -1.3620    0.3380    1.4690 n         1 MOL     -0.351909
    122 C40        -1.6680   -0.9030    0.7480 c3        1 MOL     -0.514045
    123 C41        -3.1550   -1.0610    0.4110 c         1 MOL      0.841165
    124 O16        -3.4860   -2.0220   -0.2460 o         1 MOL     -0.602959
    125 C42        -1.2170   -2.0450    1.6700 c3        1 MOL      0.289711
    126 O17        -1.5750   -1.8090    2.9860 oh        1 MOL     -0.541268
    127 H57        -1.9640    0.6570    2.2150 hn        1 MOL      0.346241
    128 H58        -1.1300   -0.8690   -0.2030 h1        1 MOL      0.246216
    129 H59        -0.1280   -2.0690    1.6720 h1        1 MOL      0.020625
    130 H60        -1.5780   -3.0000    1.2820 h1        1 MOL      0.020625
    131 H61        -1.0590   -2.4570    3.4770 ho        1 MOL      0.333514
    132 N12        -4.0800   -0.1390    0.7640 n         1 MOL     -0.606811
    133 C43        -5.4560   -0.1140    0.2630 c3        1 MOL      0.239310
    134 C44        -5.5120    0.2770   -1.2310 c         1 MOL      0.577528
    135 O18        -4.6430    0.9510   -1.7800 o         1 MOL     -0.576151
    136 C45        -6.3100    0.7660    1.1680 c3        1 MOL     -0.399328
    137 H62        -3.8590    0.5900    1.4400 hn        1 MOL      0.282063
    138 H63        -5.8100   -1.1380    0.3160 h1        1 MOL      0.079176
    139 H64        -6.0270    1.7860    0.9040 hc        1 MOL      0.120974
    140 H65        -7.3750    0.5370    1.0780 hc        1 MOL      0.120974
    141 H66        -6.1650    0.4680    2.2030 hc        1 MOL      0.120974
    142 N13        -6.4730   -0.1880   -2.0190 n         1 MOL     -0.635585
    143 C46        -7.6700   -0.8940   -1.6010 c3        1 MOL      0.439857
    144 C47        -8.7940   -0.4060   -2.4950 c         1 MOL      0.380051
    145 O19        -8.5510    0.1110   -3.5810 o         1 MOL     -0.498471
    146 C48        -7.4380   -2.4340   -1.6600 c3        1 MOL     -0.278224
    147 H67        -6.3580   -0.0020   -3.0060 hn        1 MOL      0.345735
    148 H68        -7.9110   -0.7050   -0.5580 h1        1 MOL     -0.102643
    149 H69        -7.3020   -2.7200   -2.6970 hc        1 MOL      0.079168
    150 H70        -6.5730   -2.7890   -1.1000 hc        1 MOL      0.079168
    151 H71        -8.3720   -2.9150   -1.3570 hc        1 MOL      0.079168
    152 N14       -10.1260   -0.5550   -2.0570 n         1 MOL     -0.428178
    153 C49       -10.4230   -0.8910   -0.6170 c3        1 MOL     -0.212743
    154 C50       -10.0670    0.1680    0.3900 c         1 MOL      0.682032
    155 O20        -9.8660   -0.1630    1.5730 o         1 MOL     -0.575928
    156 C51       -11.8990   -1.3620   -0.4840 c3        1 MOL      0.063372
    157 C52       -13.0080   -0.2870   -0.7920 c3        1 MOL      0.011817
    158 C53       -14.4860   -0.7410   -0.7400 c         1 MOL      0.657948
    159 O21       -15.2120   -0.2620   -1.6310 o         1 MOL     -0.650248
    160 O22       -14.7710   -1.7070   -0.0680 o         1 MOL     -0.650248
    161 H72       -10.8740   -0.1660   -2.6150 hn        1 MOL      0.325773
    162 H73        -9.7970   -1.7600   -0.4100 h1        1 MOL      0.092602
    163 H74       -12.1760   -1.7520    0.5010 hc        1 MOL      0.015441
    164 H75       -11.9730   -2.1610   -1.2090 hc        1 MOL      0.015441
    165 H76       -12.8300    0.1800   -1.7590 hc        1 MOL     -0.050514
    166 H77       -12.9970    0.5180   -0.0590 hc        1 MOL     -0.050514
    167 N15        -9.9160    1.3720   -0.1380 n         1 MOL     -0.351282
    168 C54        -9.6320    2.6690    0.5850 c3        1 MOL     -0.174302
    169 H78       -10.4560    2.8940    1.2630 h1        1 MOL      0.098881
    170 H79        -8.7080    2.5730    1.1560 h1        1 MOL      0.098881
    171 H80        -9.5280    3.4750   -0.1400 h1        1 MOL      0.098881
    172 H81       -10.2750    1.3950   -1.0870 hn        1 MOL      0.260498
    173 Ca1         2.5650    0.5200   -1.1080 Ca        1 MOL      1.756441
    174 O23         1.0340   -2.0420   -0.9100 oh        1 MOL     -0.972973
    175 H82         1.6610   -2.2380   -1.6000 ho        1 MOL      0.465786
    176 H83         0.2110   -2.4340   -1.2120 ho        1 MOL      0.465786
    177 O24         0.0460    0.9190   -2.1120 oh        1 MOL     -0.972973
    178 H84        -0.0330    1.8370   -2.3480 ho        1 MOL      0.465786
    179 H85        -0.7410    0.4980   -2.4660 ho        1 MOL      0.465786
@<TRIPOS>BOND
     1    1    2 1   
     2    1    4 1   
     3    1    5 1   
     4    1    6 1   
     5    2    3 2   
     6    2    7 1   
     7    7    8 1   
     8    7   15 1   
     9    8    9 1   
    10    8   11 1   
    11    8   16 1   
    12    9   10 2   
    13    9   19 1   
    14   11   12 1   
    15   11   17 1   
    16   11   18 1   
    17   12   13 1   
    18   12   14 1   
    19   19   20 1   
    20   19   28 1   
    21   20   21 1   
    22   20   23 1   
    23   20   29 1   
    24   21   22 2   
    25   21   41 1   
    26   23   24 1   
    27   23   30 1   
    28   23   31 1   
    29   24   25 1   
    30   24   32 1   
    31   24   33 1   
    32   25   26 1   
    33   25   34 1   
    34   25   35 1   
    35   26   27 1   
    36   26   36 1   
    37   26   37 1   
    38   27   38 1   
    39   27   39 1   
    40   27   40 1   
    41   41   42 1   
    42   41   49 1   
    43   42   43 1   
    44   42   45 1   
    45   42   50 1   
    46   43   44 2   
    47   43   53 1   
    48   45   46 1   
    49   45   51 1   
    50   45   52 1   
    51   46   47 1   
    52   46   48 1   
    53   53   54 1   
    54   53   57 1   
    55   54   55 1   
    56   54   58 1   
    57   54   59 1   
    58   55   56 2   
    59   55   60 1   
    60   60   61 1   
    61   60   68 1   
    62   61   62 1   
    63   61   64 1   
    64   61   69 1   
    65   62   63 2   
    66   62   74 1   
    67   64   65 1   
    68   64   70 1   
    69   64   71 1   
    70   65   66 1   
    71   65   67 2   
    72   66   72 1   
    73   66   73 1   
    74   74   75 1   
    75   74   78 1   
    76   75   76 1   
    77   75   79 1   
    78   75   80 1   
    79   76   77 2   
    80   76   81 1   
    81   81   82 1   
    82   81   93 1   
    83   82   83 1   
    84   82   85 1   
    85   82   94 1   
    86   83   84 2   
    87   83  102 1   
    88   85   86 1   
    89   85   95 1   
    90   85   96 1   
    91   86   87 ar  
    92   86   88 ar  
    93   87   89 ar  
    94   87   97 1   
    95   88   90 ar  
    96   88   98 1   
    97   89   91 ar  
    98   89   99 1   
    99   90   91 ar  
   100   90  100 1   
   101   91   92 1   
   102   92  101 1   
   103  102  103 1   
   104  102  110 1   
   105  103  104 1   
   106  103  106 1   
   107  103  111 1   
   108  104  105 2   
   109  104  121 1   
   110  106  107 1   
   111  106  108 1   
   112  106  112 1   
   113  107  109 1   
   114  107  113 1   
   115  107  114 1   
   116  108  115 1   
   117  108  116 1   
   118  108  117 1   
   119  109  118 1   
   120  109  119 1   
   121  109  120 1   
   122  121  122 1   
   123  121  127 1   
   124  122  123 1   
   125  122  125 1   
   126  122  128 1   
   127  123  124 2   
   128  123  132 1   
   129  125  126 1   
   130  125  129 1   
   131  125  130 1   
   132  126  131 1   
   133  132  133 1   
   134  132  137 1   
   135  133  134 1   
   136  133  136 1   
   137  133  138 1   
   138  134  135 2   
   139  134  142 1   
   140  136  139 1   
   141  136  140 1   
   142  136  141 1   
   143  142  143 1   
   144  142  147 1   
   145  143  144 1   
   146  143  146 1   
   147  143  148 1   
   148  144  145 2   
   149  144  152 1   
   150  146  149 1   
   151  146  150 1   
   152  146  151 1   
   153  152  153 1   
   154  152  161 1   
   155  153  154 1   
   156  153  156 1   
   157  153  162 1   
   158  154  155 2   
   159  154  167 1   
   160  156  157 1   
   161  156  163 1   
   162  156  164 1   
   163  157  158 1   
   164  157  165 1   
   165  157  166 1   
   166  158  159 1   
   167  158  160 1   
   168  167  168 1   
   169  167  172 1   
   170  168  169 1   
   171  168  170 1   
   172  168  171 1   
   173  174  175 1   
   174  174  176 1   
   175  177  178 1   
   176  177  179 1   
@<TRIPOS>SUBSTRUCTURE
     1 MOL         1 TEMP              0 ****  ****    0 ROOT
