@<TRIPOS>MOLECULE
MOL
  178   175     1     0     0
SMALL
resp


@<TRIPOS>ATOM
      1 C1          7.0520   -3.6000    3.8030 c3        1 MOL     -0.366204
      2 C2          7.8710   -2.5220    3.1470 c         1 MOL      0.764536
      3 O1          7.3800   -1.4430    2.8930 o         1 MOL     -0.586283
      4 H1          6.1270   -3.1700    4.1860 hc        1 MOL      0.086132
      5 H2          6.8180   -4.3740    3.0730 hc        1 MOL      0.086132
      6 H3          7.6180   -4.0360    4.6280 hc        1 MOL      0.086132
      7 N1          9.2180   -2.6690    2.9770 n         1 MOL     -0.613737
      8 C3         10.0820   -1.4920    2.5540 c3        1 MOL      0.095167
      9 C4          9.8290   -1.0540    1.0380 c         1 MOL      0.388173
     10 O2         10.1480   -1.8230    0.0860 o         1 MOL     -0.504244
     11 C5         11.5140   -1.8940    2.6900 c3        1 MOL     -0.347026
     12 C6         12.5130   -0.8810    2.0870 c         1 MOL      0.646859
     13 O3         12.3080    0.3230    2.5240 o         1 MOL     -0.691749
     14 O4         13.2560   -1.1710    1.1240 o         1 MOL     -0.691749
     15 H4          9.7990   -3.4260    3.3190 hn        1 MOL      0.302806
     16 H5          9.8370   -0.6780    3.2350 h1        1 MOL      0.084724
     17 H6         11.6600   -2.7730    2.0740 hc        1 MOL      0.075947
     18 H7         11.7290   -2.1480    3.7280 hc        1 MOL      0.075947
     19 N2          9.4780    0.2200    0.8360 n         1 MOL     -0.135539
     20 C7          8.9850    0.7230   -0.4030 c3        1 MOL      0.222480
     21 C8          7.4700    0.6150   -0.5590 c         1 MOL      0.450883
     22 O5          6.8320    1.4350    0.0970 o         1 MOL     -0.524527
     23 C9          9.4720    2.1330   -0.6310 c3        1 MOL     -0.319886
     24 H8          9.4990    0.8050    1.6640 hn        1 MOL      0.167980
     25 H9          9.3830    0.1430   -1.2430 h1        1 MOL      0.034989
     26 H10         8.9400    2.5990   -1.4720 hc        1 MOL      0.077521
     27 H11         9.2880    2.7790    0.2300 hc        1 MOL      0.077521
     28 H12        10.5430    2.1110   -0.8430 hc        1 MOL      0.077521
     29 N3          7.0320   -0.1980   -1.4670 n         1 MOL     -0.531029
     30 C10         5.6160   -0.1900   -1.9890 c3        1 MOL      0.391047
     31 C11         5.1910    1.0750   -2.7350 c         1 MOL      0.308880
     32 O6          4.7880    1.0400   -3.8940 o         1 MOL     -0.491562
     33 C12         5.3020   -1.4480   -2.7970 c3        1 MOL     -0.125156
     34 C13         3.9160   -1.9960   -2.6030 c         1 MOL      0.773402
     35 O7          2.9610   -1.3060   -2.1020 o         1 MOL     -0.807260
     36 O8          3.6310   -3.1370   -2.9750 o         1 MOL     -0.807260
     37 H13         7.6960   -0.7080   -2.0400 hn        1 MOL      0.251576
     38 H14         5.0430   -0.3600   -1.0790 h1        1 MOL      0.007639
     39 H15         5.9060   -2.2980   -2.4580 hc        1 MOL      0.021892
     40 H16         5.5070   -1.2460   -3.8510 hc        1 MOL      0.021892
     41 N4          5.3630    2.2140   -2.0720 n         1 MOL     -0.157679
     42 C14         5.0150    3.5400   -2.6250 c3        1 MOL     -0.349860
     43 C15         3.5420    3.7940   -2.9360 c         1 MOL      0.673989
     44 O9          3.2960    4.7370   -3.6730 o         1 MOL     -0.608039
     45 H17         5.6920    2.1200   -1.1190 hn        1 MOL      0.201998
     46 H18         5.5020    3.5890   -3.5970 h1        1 MOL      0.142811
     47 H19         5.4060    4.2790   -1.9340 h1        1 MOL      0.142811
     48 N5          2.6200    3.0040   -2.4020 n         1 MOL     -0.359523
     49 C16         1.1690    3.2010   -2.5350 c3        1 MOL     -0.099518
     50 C17         0.6820    4.4200   -1.7580 c         1 MOL      0.502955
     51 O10         0.8940    4.6100   -0.5230 o         1 MOL     -0.521532
     52 C18         0.4650    1.8430   -2.2030 c3        1 MOL      0.220686
     53 C19        -0.9310    1.8060   -2.6940 c         1 MOL      0.424435
     54 N6         -1.4620    0.6190   -2.9770 n         1 MOL     -0.712977
     55 O11        -1.4320    2.8540   -3.1140 o         1 MOL     -0.556456
     56 H20         2.9210    2.1700   -1.9080 hn        1 MOL      0.190974
     57 H21         1.0440    3.3860   -3.5980 h1        1 MOL      0.060216
     58 H22         0.4540    1.7290   -1.1240 hc        1 MOL      0.036112
     59 H23         1.0360    1.0360   -2.6550 hc        1 MOL      0.036112
     60 H24        -1.1660   -0.2430   -2.5410 hn        1 MOL      0.345163
     61 H25        -2.3080    0.6340   -3.5270 hn        1 MOL      0.345163
     62 N7         -0.1580    5.1800   -2.5030 n         1 MOL     -0.260265
     63 C20        -0.8360    6.4400   -2.0390 c3        1 MOL     -0.325060
     64 C21        -2.1280    6.2390   -1.2570 c         1 MOL      0.751380
     65 O12        -2.9540    5.4640   -1.6540 o         1 MOL     -0.526784
     66 H26        -0.4240    4.9000   -3.4370 hn        1 MOL      0.294276
     67 H27        -1.1690    6.9190   -2.9550 h1        1 MOL      0.113959
     68 H28        -0.1940    7.0950   -1.4280 h1        1 MOL      0.113959
     69 N8         -2.3630    6.8600   -0.0890 n         1 MOL     -0.465047
     70 C22        -3.6760    6.8480    0.5610 c3        1 MOL     -0.465654
     71 C23        -4.0630    5.6110    1.3760 c         1 MOL      0.560583
     72 O13        -5.2560    5.4370    1.7690 o         1 MOL     -0.583651
     73 C24        -3.7960    8.1760    1.3960 c3        1 MOL      0.520355
     74 C25        -2.9920    7.9900    2.7230 c3        1 MOL     -0.151134
     75 O14        -3.2720    9.4230    0.9010 oh        1 MOL     -0.648504
     76 H29        -1.6450    7.4920    0.2370 hn        1 MOL      0.254589
     77 H30        -4.3940    6.9350   -0.2530 h1        1 MOL      0.191495
     78 H31        -4.8130    8.2840    1.7620 h1        1 MOL      0.017059
     79 H32        -2.3310    9.3330    0.7060 ho        1 MOL      0.389667
     80 H33        -1.9060    7.9430    2.6210 hc        1 MOL      0.028632
     81 H34        -3.0570    8.9580    3.2140 hc        1 MOL      0.028632
     82 H35        -3.4850    7.2520    3.3400 hc        1 MOL      0.028632
     83 N9         -3.1290    4.7260    1.6760 n         1 MOL     -0.068549
     84 C26        -3.2130    3.4500    2.3680 c3        1 MOL     -0.165710
     85 C27        -2.2780    2.4330    1.6390 c         1 MOL      0.472060
     86 O15        -1.2270    2.8410    1.0340 o         1 MOL     -0.424604
     87 C28        -2.9170    3.6010    3.8860 c3        1 MOL      0.148473
     88 C29        -1.7020    4.5600    4.1890 c3        1 MOL      0.200621
     89 C30        -4.2030    4.1180    4.5340 c3        1 MOL     -0.140785
     90 C31        -1.5550    4.8130    5.6900 c3        1 MOL     -0.311700
     91 H36        -2.2220    4.8950    1.2500 hn        1 MOL      0.145335
     92 H37        -4.2240    3.0650    2.2180 h1        1 MOL      0.080092
     93 H38        -2.7270    2.6040    4.3010 hc        1 MOL     -0.005709
     94 H39        -1.8740    5.5280    3.7200 hc        1 MOL     -0.020113
     95 H40        -0.7930    4.0900    3.8250 hc        1 MOL     -0.020113
     96 H41        -5.0210    3.4260    4.3870 hc        1 MOL      0.027444
     97 H42        -4.0360    4.1930    5.6050 hc        1 MOL      0.027444
     98 H43        -4.4780    5.1010    4.1510 hc        1 MOL      0.027444
     99 H44        -0.5000    5.0510    5.8450 hc        1 MOL      0.063525
    100 H45        -2.1240    5.7110    5.9440 hc        1 MOL      0.063525
    101 H46        -1.7540    3.9210    6.2820 hc        1 MOL      0.063525
    102 N10        -2.6710    1.1310    1.6930 n         1 MOL     -0.657625
    103 C32        -2.2580    0.1200    0.7130 c3        1 MOL      0.291415
    104 C33        -3.4410   -0.7810    0.2850 c         1 MOL      0.417264
    105 O16        -3.3800   -2.0090    0.3960 o         1 MOL     -0.364809
    106 C34        -1.0750   -0.7150    1.2090 c3        1 MOL     -0.177656
    107 C35        -0.4150   -1.5560    0.1370 c         1 MOL      0.640303
    108 O17        -0.7520   -1.4550   -1.0570 o         1 MOL     -0.743690
    109 O18         0.6060   -2.2960    0.4670 o         1 MOL     -0.743690
    110 H47        -3.5050    0.9390    2.2330 hn        1 MOL      0.345130
    111 H48        -1.9390    0.6170   -0.2000 h1        1 MOL      0.055703
    112 H49        -1.3810   -1.2730    2.0880 hc        1 MOL      0.072860
    113 H50        -0.2630   -0.0530    1.5180 hc        1 MOL      0.072860
    114 N11        -4.5350   -0.1970   -0.1900 n         1 MOL     -0.594068
    115 C36        -5.7360   -0.8740   -0.6040 c3        1 MOL      0.261291
    116 C37        -6.1380   -2.0070    0.3060 c         1 MOL      0.220689
    117 O19        -6.1720   -1.8120    1.5360 o         1 MOL     -0.480860
    118 C38        -6.9050    0.1800   -0.7100 c3        1 MOL     -0.213165
    119 C39        -8.2170   -0.3490   -1.3090 ca        1 MOL      0.093977
    120 C40        -8.5250   -0.0740   -2.6310 ca        1 MOL     -0.153398
    121 C41        -9.0030   -1.2460   -0.5600 ca        1 MOL     -0.153398
    122 C42        -9.6450   -0.7030   -3.2580 ca        1 MOL     -0.111831
    123 C43       -10.0920   -1.8990   -1.2340 ca        1 MOL     -0.111831
    124 C44       -10.4250   -1.5770   -2.5640 ca        1 MOL     -0.110990
    125 H51        -4.4030    0.7860   -0.3710 hn        1 MOL      0.343017
    126 H52        -5.5160   -1.1230   -1.6360 h1        1 MOL      0.033602
    127 H53        -6.5000    1.0490   -1.2180 hc        1 MOL      0.095096
    128 H54        -7.1080    0.5110    0.3080 hc        1 MOL      0.095096
    129 H55        -7.9180    0.6130   -3.2100 ha        1 MOL      0.119676
    130 H56        -8.7130   -1.6040    0.4130 ha        1 MOL      0.119676
    131 H57        -9.9610   -0.5100   -4.2740 ha        1 MOL      0.103751
    132 H58       -10.7020   -2.6470   -0.7530 ha        1 MOL      0.103751
    133 H59       -11.2040   -2.1570   -3.0310 ha        1 MOL      0.102954
    134 N12        -6.5110   -3.2400   -0.2180 n         1 MOL      0.097340
    135 C45        -6.9090   -4.2820    0.6650 c3        1 MOL      0.016988
    136 C46        -5.8790   -4.8840    1.6540 c         1 MOL      0.212468
    137 O20        -6.1970   -5.4240    2.6990 o         1 MOL     -0.479806
    138 C47        -7.3050   -5.3670   -0.2500 c3        1 MOL      0.014361
    139 C48        -7.5950   -4.7050   -1.5720 c3        1 MOL     -0.045511
    140 C49        -6.5390   -3.6510   -1.6410 c3        1 MOL      0.026930
    141 H60        -7.7630   -3.9560    1.2610 h1        1 MOL      0.050317
    142 H61        -6.4670   -6.0510   -0.3870 hc        1 MOL      0.019559
    143 H62        -8.1450   -5.9740    0.0890 hc        1 MOL      0.019559
    144 H63        -7.5160   -5.4840   -2.3250 hc        1 MOL      0.009773
    145 H64        -8.5650   -4.2250   -1.5950 hc        1 MOL      0.009773
    146 H65        -5.5560   -4.0660   -1.8770 h1        1 MOL      0.010182
    147 H66        -6.8030   -2.8690   -2.3490 h1        1 MOL      0.010182
    148 N13        -4.6070   -4.7560    1.3230 n         1 MOL     -0.000236
    149 C50        -3.4390   -5.1390    2.1600 c3        1 MOL     -0.397832
    150 C51        -3.3000   -4.3640    3.5180 c         1 MOL      0.530252
    151 O21        -2.9290   -4.9600    4.5420 o         1 MOL     -0.552372
    152 C52        -2.1150   -5.1000    1.3400 c3        1 MOL      0.099739
    153 C53        -2.2070   -5.4860   -0.1270 c3        1 MOL     -0.069331
    154 C54        -0.9650   -4.9880   -0.8780 c         1 MOL      0.622108
    155 O22         0.1410   -5.1520   -0.3290 o         1 MOL     -0.712496
    156 O23        -1.0840   -4.5160   -2.0720 o         1 MOL     -0.712496
    157 H67        -4.3520   -4.2300    0.4940 hn        1 MOL      0.115151
    158 H68        -3.5710   -6.1830    2.4140 h1        1 MOL      0.160929
    159 H69        -1.3990   -5.7880    1.7870 hc        1 MOL      0.032266
    160 H70        -1.8450   -4.0410    1.3280 hc        1 MOL      0.032266
    161 H71        -3.1150   -5.1240   -0.6200 hc        1 MOL      0.001628
    162 H72        -2.2070   -6.5820   -0.1710 hc        1 MOL      0.001628
    163 N14        -3.7360   -3.1350    3.4880 n         1 MOL     -0.091243
    164 C55        -3.7610   -2.3660    4.6980 c3        1 MOL     -0.421284
    165 H73        -4.4030   -2.8590    5.4280 h1        1 MOL      0.135361
    166 H74        -2.7510   -2.2860    5.1000 h1        1 MOL      0.135361
    167 H75        -4.1490   -1.3690    4.4890 h1        1 MOL      0.135361
    168 H76        -3.9090   -2.6630    2.6030 hn        1 MOL      0.243294
    169 Ca1         1.2190   -3.3190   -1.9010 Ca        1 MOL      1.746313
    170 O24         3.0530   -4.6730   -0.1700 oh        1 MOL     -0.793732
    171 H77         2.5430   -4.7340    0.6460 ho        1 MOL      0.396981
    172 H78         3.9490   -4.9020    0.1010 ho        1 MOL      0.396981
    173 O25         0.6350   -2.3690   -4.3300 oh        1 MOL     -0.793732
    174 H79         1.4650   -1.9640   -4.6090 ho        1 MOL      0.396981
    175 H80         0.1430   -2.4800   -5.1420 ho        1 MOL      0.396981
    176 O26         1.6510   -5.3740   -3.5760 oh        1 MOL     -0.793732
    177 H81         1.6570   -5.2530   -4.5320 ho        1 MOL      0.396981
    178 H82         2.4780   -5.8110   -3.3910 ho        1 MOL      0.396981
@<TRIPOS>BOND
     1    1    2 1   
     2    1    4 1   
     3    1    5 1   
     4    1    6 1   
     5    2    3 2   
     6    2    7 1   
     7    7    8 1   
     8    7   15 1   
     9    8    9 1   
    10    8   11 1   
    11    8   16 1   
    12    9   10 2   
    13    9   19 1   
    14   11   12 1   
    15   11   17 1   
    16   11   18 1   
    17   12   13 1   
    18   12   14 1   
    19   19   20 1   
    20   19   24 1   
    21   20   21 1   
    22   20   23 1   
    23   20   25 1   
    24   21   22 2   
    25   21   29 1   
    26   23   26 1   
    27   23   27 1   
    28   23   28 1   
    29   29   30 1   
    30   29   37 1   
    31   30   31 1   
    32   30   33 1   
    33   30   38 1   
    34   31   32 2   
    35   31   41 1   
    36   33   34 1   
    37   33   39 1   
    38   33   40 1   
    39   34   35 1   
    40   34   36 1   
    41   41   42 1   
    42   41   45 1   
    43   42   43 1   
    44   42   46 1   
    45   42   47 1   
    46   43   44 2   
    47   43   48 1   
    48   48   49 1   
    49   48   56 1   
    50   49   50 1   
    51   49   52 1   
    52   49   57 1   
    53   50   51 2   
    54   50   62 1   
    55   52   53 1   
    56   52   58 1   
    57   52   59 1   
    58   53   54 1   
    59   53   55 2   
    60   54   60 1   
    61   54   61 1   
    62   62   63 1   
    63   62   66 1   
    64   63   64 1   
    65   63   67 1   
    66   63   68 1   
    67   64   65 2   
    68   64   69 1   
    69   69   70 1   
    70   69   76 1   
    71   70   71 1   
    72   70   73 1   
    73   70   77 1   
    74   71   72 2   
    75   71   83 1   
    76   73   74 1   
    77   73   75 1   
    78   73   78 1   
    79   74   80 1   
    80   74   81 1   
    81   74   82 1   
    82   75   79 1   
    83   83   84 1   
    84   83   91 1   
    85   84   85 1   
    86   84   87 1   
    87   84   92 1   
    88   85   86 2   
    89   85  102 1   
    90   87   88 1   
    91   87   89 1   
    92   87   93 1   
    93   88   90 1   
    94   88   94 1   
    95   88   95 1   
    96   89   96 1   
    97   89   97 1   
    98   89   98 1   
    99   90   99 1   
   100   90  100 1   
   101   90  101 1   
   102  102  103 1   
   103  102  110 1   
   104  103  104 1   
   105  103  106 1   
   106  103  111 1   
   107  104  105 2   
   108  104  114 1   
   109  106  107 1   
   110  106  112 1   
   111  106  113 1   
   112  107  108 1   
   113  107  109 1   
   114  114  115 1   
   115  114  125 1   
   116  115  116 1   
   117  115  118 1   
   118  115  126 1   
   119  116  117 2   
   120  116  134 1   
   121  118  119 1   
   122  118  127 1   
   123  118  128 1   
   124  119  120 ar  
   125  119  121 ar  
   126  120  122 ar  
   127  120  129 1   
   128  121  123 ar  
   129  121  130 1   
   130  122  124 ar  
   131  122  131 1   
   132  123  124 ar  
   133  123  132 1   
   134  124  133 1   
   135  134  135 1   
   136  134  140 1   
   137  135  136 1   
   138  135  138 1   
   139  135  141 1   
   140  136  137 2   
   141  136  148 1   
   142  138  139 1   
   143  138  142 1   
   144  138  143 1   
   145  139  140 1   
   146  139  144 1   
   147  139  145 1   
   148  140  146 1   
   149  140  147 1   
   150  148  149 1   
   151  148  157 1   
   152  149  150 1   
   153  149  152 1   
   154  149  158 1   
   155  150  151 2   
   156  150  163 1   
   157  152  153 1   
   158  152  159 1   
   159  152  160 1   
   160  153  154 1   
   161  153  161 1   
   162  153  162 1   
   163  154  155 1   
   164  154  156 1   
   165  163  164 1   
   166  163  168 1   
   167  164  165 1   
   168  164  166 1   
   169  164  167 1   
   170  170  171 1   
   171  170  172 1   
   172  173  174 1   
   173  173  175 1   
   174  176  177 1   
   175  176  178 1   
@<TRIPOS>SUBSTRUCTURE
     1 MOL         1 TEMP              0 ****  ****    0 ROOT
