@<TRIPOS>MOLECULE
MOL
  181   177     1     0     0
SMALL
resp


@<TRIPOS>ATOM
      1 C1          5.0290   -2.6250    3.5190 c3        1 MOL     -0.366172
      2 C2          6.1850   -1.9280    2.8360 c         1 MOL      0.852394
      3 O1          5.9990   -1.1280    1.9410 o         1 MOL     -0.628872
      4 H1          4.1030   -2.0940    3.2960 hc        1 MOL      0.095715
      5 H2          4.9560   -3.6500    3.1560 hc        1 MOL      0.095715
      6 H3          5.1940   -2.6320    4.5960 hc        1 MOL      0.095715
      7 N1          7.4050   -2.1890    3.2320 n         1 MOL     -0.744207
      8 C3          8.5840   -1.4640    2.8070 c3        1 MOL      0.411472
      9 C4          8.9600   -1.8340    1.3910 c         1 MOL      0.597342
     10 O2          9.1040   -3.0460    1.0510 o         1 MOL     -0.593913
     11 C5          9.7480   -1.7070    3.8190 c3        1 MOL     -0.302844
     12 C6         11.0930   -0.9670    3.4750 c         1 MOL      0.741313
     13 O3         11.0210    0.0260    2.7610 o         1 MOL     -0.724546
     14 O4         12.1610   -1.3790    3.9820 o         1 MOL     -0.724546
     15 H4          7.5950   -2.8380    3.9770 hn        1 MOL      0.328002
     16 H5          8.3320   -0.4130    2.8720 h1        1 MOL     -0.024887
     17 H6          9.9270   -2.7760    3.8430 hc        1 MOL      0.022729
     18 H7          9.2870   -1.4210    4.7630 hc        1 MOL      0.022729
     19 N2          9.0780   -0.8250    0.5040 n         1 MOL     -0.533821
     20 C7          9.1610   -1.0430   -0.9150 c3        1 MOL      0.331294
     21 C8          7.8560   -1.3700   -1.6000 c         1 MOL      0.305656
     22 O5          7.8740   -1.6110   -2.8070 o         1 MOL     -0.546421
     23 C9          9.8730    0.1650   -1.4640 c3        1 MOL     -0.315577
     24 H8          9.0400    0.1330    0.8390 hn        1 MOL      0.262454
     25 H9          9.9070   -1.8290   -1.0500 h1        1 MOL      0.053674
     26 H10         9.3020    1.1000   -1.4880 hc        1 MOL      0.079131
     27 H11        10.8160    0.3200   -0.9330 hc        1 MOL      0.079131
     28 H12        10.1580   -0.1380   -2.4620 hc        1 MOL      0.079131
     29 N3          6.7480   -1.3160   -0.9090 n         1 MOL     -0.276145
     30 C10         5.3290   -1.4930   -1.3770 c3        1 MOL      0.322980
     31 C11         4.8100   -0.5750   -2.4930 c         1 MOL      0.491980
     32 O6          3.8710   -0.8860   -3.2700 o         1 MOL     -0.560188
     33 C12         5.0460   -2.9820   -1.4860 c3        1 MOL     -0.092388
     34 C13         3.5520   -3.2650   -1.5410 c         1 MOL      0.682488
     35 O7          2.6820   -2.6710   -0.8060 o         1 MOL     -0.733178
     36 O8          3.1820   -4.2130   -2.2790 o         1 MOL     -0.733178
     37 H13         6.8430   -1.2820    0.0920 hn        1 MOL      0.123215
     38 H14         4.7410   -1.2330   -0.4970 h1        1 MOL     -0.034653
     39 H15         5.4750   -3.5440   -0.6570 hc        1 MOL      0.021357
     40 H16         5.4390   -3.2180   -2.4730 hc        1 MOL      0.021357
     41 N4          5.3630    0.6240   -2.6420 n         1 MOL     -0.294243
     42 C14         5.2440    1.4770   -3.8570 c3        1 MOL     -0.176114
     43 C15         4.0960    2.5230   -3.9570 c         1 MOL      0.568935
     44 O9          4.1420    3.3910   -4.8320 o         1 MOL     -0.597915
     45 H17         6.0640    0.8070   -1.9410 hn        1 MOL      0.215096
     46 H18         5.2050    0.8570   -4.7560 h1        1 MOL      0.110551
     47 H19         6.1110    2.1230   -3.9200 h1        1 MOL      0.110551
     48 N5          3.1020    2.4990   -3.1050 n         1 MOL     -0.325674
     49 C16         1.9010    3.3060   -3.2850 c3        1 MOL      0.043178
     50 C17         1.9440    4.5030   -2.3110 c         1 MOL      0.542401
     51 O10         2.4990    4.4010   -1.2250 o         1 MOL     -0.521901
     52 C18         0.8090    2.3140   -3.0110 c3        1 MOL     -0.168348
     53 C19        -0.4750    2.9780   -3.4880 c         1 MOL      0.643090
     54 N6         -1.4060    3.1890   -2.5350 n         1 MOL     -0.804372
     55 O11        -0.6670    3.4030   -4.6050 o         1 MOL     -0.591303
     56 H20         3.1570    1.8390   -2.3450 hn        1 MOL      0.193599
     57 H21         1.9630    3.6310   -4.3210 h1        1 MOL      0.053430
     58 H22         0.8150    2.1030   -1.9400 hc        1 MOL      0.103914
     59 H23         0.9320    1.3690   -3.5340 hc        1 MOL      0.103914
     60 H24        -1.1800    3.0960   -1.5590 hn        1 MOL      0.358090
     61 H25        -2.3770    3.2970   -2.8230 hn        1 MOL      0.358090
     62 N7          1.2170    5.5590   -2.6820 n         1 MOL     -0.438914
     63 C20         0.8610    6.7620   -1.9110 c3        1 MOL      0.079409
     64 C21        -0.4100    6.7710   -1.0780 c         1 MOL      0.536030
     65 O12        -1.4730    6.2820   -1.5160 o         1 MOL     -0.489621
     66 H26         0.7650    5.6020   -3.5890 hn        1 MOL      0.305521
     67 H27         0.8680    7.6430   -2.5680 h1        1 MOL      0.023776
     68 H28         1.6580    6.9750   -1.1950 h1        1 MOL      0.023776
     69 N8         -0.2920    7.3110    0.1840 n         1 MOL     -0.479492
     70 C22        -1.4240    7.5300    1.0970 c3        1 MOL     -0.244307
     71 C23        -2.1550    6.3220    1.7560 c         1 MOL      0.476396
     72 O13        -3.3060    6.4320    2.1810 o         1 MOL     -0.543492
     73 C24        -1.0820    8.5920    2.2410 c3        1 MOL      0.360253
     74 C25        -0.0090    8.2900    3.2800 c3        1 MOL     -0.296321
     75 O14        -0.7600    9.8200    1.6380 oh        1 MOL     -0.599245
     76 H29         0.6470    7.5220    0.4870 hn        1 MOL      0.308429
     77 H30        -2.1670    7.9910    0.4480 h1        1 MOL      0.173352
     78 H31        -2.0110    8.7820    2.7880 h1        1 MOL      0.068357
     79 H32         0.0660    9.6750    1.1740 ho        1 MOL      0.358901
     80 H33         1.0150    8.3630    2.9060 hc        1 MOL      0.076464
     81 H34        -0.1040    9.0040    4.1010 hc        1 MOL      0.076464
     82 H35        -0.1680    7.3420    3.7730 hc        1 MOL      0.076464
     83 N9         -1.4360    5.1610    1.8450 n         1 MOL     -0.136451
     84 C26        -1.8970    3.8580    2.2080 c3        1 MOL     -0.109441
     85 C27        -1.5380    2.7970    1.1280 c         1 MOL      0.526274
     86 O15        -0.7020    3.0090    0.1990 o         1 MOL     -0.460415
     87 C28        -1.2520    3.4560    3.5710 c3        1 MOL      0.311843
     88 C29         0.3060    3.5550    3.5310 c3        1 MOL      0.183876
     89 C30        -1.7880    4.2930    4.7170 c3        1 MOL     -0.521386
     90 C31         1.0330    2.7620    4.7050 c3        1 MOL     -0.333878
     91 H36        -0.4500    5.2050    1.6190 hn        1 MOL      0.145500
     92 H37        -2.9810    3.8430    2.3230 h1        1 MOL      0.102606
     93 H38        -1.4690    2.4210    3.8390 hc        1 MOL     -0.052017
     94 H39         0.5710    4.5680    3.8250 hc        1 MOL     -0.025426
     95 H40         0.6720    3.2670    2.5420 hc        1 MOL     -0.025426
     96 H41        -1.7570    5.3660    4.5680 hc        1 MOL      0.114845
     97 H42        -2.8490    4.0550    4.8010 hc        1 MOL      0.114845
     98 H43        -1.2340    4.1750    5.6490 hc        1 MOL      0.114845
     99 H44         2.0960    2.9490    4.5830 hc        1 MOL      0.082621
    100 H45         0.6500    3.1230    5.6640 hc        1 MOL      0.082621
    101 H46         1.0400    1.6720    4.5820 hc        1 MOL      0.082621
    102 N10        -2.3330    1.6890    1.2240 n         1 MOL     -0.703816
    103 C32        -2.1710    0.5010    0.3000 c3        1 MOL      0.410611
    104 C33        -3.4670   -0.0610   -0.3680 c         1 MOL      0.553033
    105 O16        -3.4600   -1.1790   -0.9000 o         1 MOL     -0.454961
    106 C34        -1.4580   -0.5690    1.0790 c3        1 MOL     -0.192999
    107 C35        -0.8130   -1.6750    0.1480 c         1 MOL      0.588615
    108 O17        -0.4070   -1.3540   -0.9740 o         1 MOL     -0.669164
    109 O18        -0.7320   -2.8360    0.4770 o         1 MOL     -0.669164
    110 H47        -3.0270    1.6840    1.9580 hn        1 MOL      0.322159
    111 H48        -1.5360    0.7440   -0.5470 h1        1 MOL     -0.086392
    112 H49        -2.0390   -1.0400    1.8680 hc        1 MOL      0.066476
    113 H50        -0.5790   -0.0920    1.5220 hc        1 MOL      0.066476
    114 N11        -4.6080    0.6610   -0.2830 n         1 MOL     -0.616692
    115 C36        -5.9470    0.1950   -0.6830 c3        1 MOL      0.219546
    116 C37        -6.4170   -0.8850    0.3150 c         1 MOL      0.276618
    117 O19        -6.2260   -0.7530    1.5220 o         1 MOL     -0.427192
    118 C38        -6.9710    1.3660   -0.7990 c3        1 MOL     -0.159271
    119 C39        -8.3450    0.8950   -1.1520 ca        1 MOL      0.029200
    120 C40        -8.7940    1.0000   -2.4800 ca        1 MOL     -0.101740
    121 C41        -9.1600    0.4850   -0.1310 ca        1 MOL     -0.101740
    122 C42       -10.1210    0.7060   -2.8090 ca        1 MOL     -0.140128
    123 C43       -10.4390    0.0310   -0.4670 ca        1 MOL     -0.140128
    124 C44       -10.9150    0.1390   -1.7830 ca        1 MOL     -0.111377
    125 H51        -4.5750    1.6350   -0.0140 hn        1 MOL      0.295489
    126 H52        -5.7500   -0.1540   -1.6970 h1        1 MOL      0.059179
    127 H53        -6.6800    2.1340   -1.5100 hc        1 MOL      0.085018
    128 H54        -7.0720    1.7900    0.1980 hc        1 MOL      0.085018
    129 H55        -8.2370    1.4700   -3.2740 ha        1 MOL      0.116007
    130 H56        -8.7930    0.2940    0.8650 ha        1 MOL      0.116007
    131 H57       -10.5070    0.8990   -3.7970 ha        1 MOL      0.121290
    132 H58       -11.0630   -0.4170    0.2900 ha        1 MOL      0.121290
    133 H59       -11.9350   -0.1440   -2.0060 ha        1 MOL      0.101159
    134 N12        -7.0050   -2.0670   -0.1190 n         1 MOL     -0.246303
    135 C45        -7.7370   -3.0430    0.6990 c3        1 MOL      0.143448
    136 C46        -6.8790   -3.7440    1.7510 c         1 MOL      0.192673
    137 O20        -7.4070   -4.2950    2.7600 o         1 MOL     -0.522093
    138 C47        -8.2850   -4.1110   -0.1820 c3        1 MOL     -0.041895
    139 C48        -8.5090   -3.2850   -1.4320 c3        1 MOL      0.051252
    140 C49        -7.3020   -2.3570   -1.5480 c3        1 MOL     -0.091995
    141 H60        -8.5440   -2.4320    1.1130 h1        1 MOL      0.077729
    142 H61        -7.5260   -4.8570   -0.3690 hc        1 MOL      0.039707
    143 H62        -9.2530   -4.4300    0.2230 hc        1 MOL      0.039707
    144 H63        -8.6140   -3.9360   -2.3030 hc        1 MOL      0.000414
    145 H64        -9.4570   -2.7690   -1.2830 hc        1 MOL      0.000414
    146 H65        -6.4990   -2.8260   -2.1280 h1        1 MOL      0.065877
    147 H66        -7.6500   -1.5180   -2.1360 h1        1 MOL      0.065877
    148 N13        -5.5870   -3.9370    1.5000 n         1 MOL     -0.013458
    149 C50        -4.5960   -4.5840    2.3900 c3        1 MOL     -0.266768
    150 C51        -4.2870   -3.8370    3.7260 c         1 MOL      0.422513
    151 O21        -3.5290   -4.4040    4.5380 o         1 MOL     -0.535427
    152 C52        -3.2210   -4.6880    1.5920 c3        1 MOL      0.260750
    153 C53        -3.2180   -5.7250    0.5140 c3        1 MOL     -0.132856
    154 C54        -1.8510   -5.8940   -0.1350 c         1 MOL      0.775718
    155 O22        -1.6680   -5.2320   -1.2110 o         1 MOL     -0.742976
    156 O23        -1.0340   -6.7180    0.2460 o         1 MOL     -0.742976
    157 H67        -5.1250   -3.3580    0.8200 hn        1 MOL      0.217274
    158 H68        -4.8180   -5.6350    2.5710 h1        1 MOL      0.155587
    159 H69        -2.3540   -4.8210    2.2350 hc        1 MOL     -0.024902
    160 H70        -3.1170   -3.7080    1.1170 hc        1 MOL     -0.024902
    161 H71        -3.9180   -5.3710   -0.2440 hc        1 MOL     -0.037580
    162 H72        -3.6210   -6.6540    0.9130 hc        1 MOL     -0.037580
    163 N14        -4.7990   -2.6350    3.9690 n         1 MOL     -0.064406
    164 C55        -4.5470   -1.8040    5.1020 c3        1 MOL     -0.347868
    165 H73        -5.3200   -1.9690    5.8520 h1        1 MOL      0.119824
    166 H74        -3.5720   -2.0510    5.5250 h1        1 MOL      0.119824
    167 H75        -4.5560   -0.7580    4.7960 h1        1 MOL      0.119824
    168 H76        -5.3400   -2.1900    3.2350 hn        1 MOL      0.152829
    169 Ca1         0.4770   -3.7270   -1.6720 Ca        1 MOL      1.765446
    170 O24         0.7520   -5.8380   -3.4870 oh        1 MOL     -0.859430
    171 O25        -1.1610   -3.3810   -3.8370 oh        1 MOL     -0.859430
    172 H77         1.3850   -6.5390   -3.5970 ho        1 MOL      0.413741
    173 H78        -1.7360   -2.8180   -4.3670 ho        1 MOL      0.413741
    174 H79         0.2300   -5.8600   -4.2890 ho        1 MOL      0.413741
    175 H80        -1.1110   -4.1970   -4.3290 ho        1 MOL      0.413741
    176 O26         1.1920   -1.6250   -3.3330 oh        1 MOL     -0.859430
    177 H81         0.8800   -1.1780   -4.1200 ho        1 MOL      0.413741
    178 H82         1.9860   -1.1380   -3.0980 ho        1 MOL      0.413741
    179 O27         1.5670   -5.5350   -0.2270 oh        1 MOL     -0.859430
    180 H83         2.4050   -5.9600   -0.4250 ho        1 MOL      0.413741
    181 H84         0.9590   -6.2650   -0.0740 ho        1 MOL      0.413741
@<TRIPOS>BOND
     1    1    2 1   
     2    1    4 1   
     3    1    5 1   
     4    1    6 1   
     5    2    3 2   
     6    2    7 1   
     7    7    8 1   
     8    7   15 1   
     9    8    9 1   
    10    8   11 1   
    11    8   16 1   
    12    9   10 2   
    13    9   19 1   
    14   11   12 1   
    15   11   17 1   
    16   11   18 1   
    17   12   13 1   
    18   12   14 1   
    19   19   20 1   
    20   19   24 1   
    21   20   21 1   
    22   20   23 1   
    23   20   25 1   
    24   21   22 2   
    25   21   29 1   
    26   23   26 1   
    27   23   27 1   
    28   23   28 1   
    29   29   30 1   
    30   29   37 1   
    31   30   31 1   
    32   30   33 1   
    33   30   38 1   
    34   31   32 2   
    35   31   41 1   
    36   33   34 1   
    37   33   39 1   
    38   33   40 1   
    39   34   35 1   
    40   34   36 1   
    41   41   42 1   
    42   41   45 1   
    43   42   43 1   
    44   42   46 1   
    45   42   47 1   
    46   43   44 2   
    47   43   48 1   
    48   48   49 1   
    49   48   56 1   
    50   49   50 1   
    51   49   52 1   
    52   49   57 1   
    53   50   51 2   
    54   50   62 1   
    55   52   53 1   
    56   52   58 1   
    57   52   59 1   
    58   53   54 1   
    59   53   55 2   
    60   54   60 1   
    61   54   61 1   
    62   62   63 1   
    63   62   66 1   
    64   63   64 1   
    65   63   67 1   
    66   63   68 1   
    67   64   65 2   
    68   64   69 1   
    69   69   70 1   
    70   69   76 1   
    71   70   71 1   
    72   70   73 1   
    73   70   77 1   
    74   71   72 2   
    75   71   83 1   
    76   73   74 1   
    77   73   75 1   
    78   73   78 1   
    79   74   80 1   
    80   74   81 1   
    81   74   82 1   
    82   75   79 1   
    83   83   84 1   
    84   83   91 1   
    85   84   85 1   
    86   84   87 1   
    87   84   92 1   
    88   85   86 2   
    89   85  102 1   
    90   87   88 1   
    91   87   89 1   
    92   87   93 1   
    93   88   90 1   
    94   88   94 1   
    95   88   95 1   
    96   89   96 1   
    97   89   97 1   
    98   89   98 1   
    99   90   99 1   
   100   90  100 1   
   101   90  101 1   
   102  102  103 1   
   103  102  110 1   
   104  103  104 1   
   105  103  106 1   
   106  103  111 1   
   107  104  105 2   
   108  104  114 1   
   109  106  107 1   
   110  106  112 1   
   111  106  113 1   
   112  107  108 1   
   113  107  109 1   
   114  114  115 1   
   115  114  125 1   
   116  115  116 1   
   117  115  118 1   
   118  115  126 1   
   119  116  117 2   
   120  116  134 1   
   121  118  119 1   
   122  118  127 1   
   123  118  128 1   
   124  119  120 ar  
   125  119  121 ar  
   126  120  122 ar  
   127  120  129 1   
   128  121  123 ar  
   129  121  130 1   
   130  122  124 ar  
   131  122  131 1   
   132  123  124 ar  
   133  123  132 1   
   134  124  133 1   
   135  134  135 1   
   136  134  140 1   
   137  135  136 1   
   138  135  138 1   
   139  135  141 1   
   140  136  137 2   
   141  136  148 1   
   142  138  139 1   
   143  138  142 1   
   144  138  143 1   
   145  139  140 1   
   146  139  144 1   
   147  139  145 1   
   148  140  146 1   
   149  140  147 1   
   150  148  149 1   
   151  148  157 1   
   152  149  150 1   
   153  149  152 1   
   154  149  158 1   
   155  150  151 2   
   156  150  163 1   
   157  152  153 1   
   158  152  159 1   
   159  152  160 1   
   160  153  154 1   
   161  153  161 1   
   162  153  162 1   
   163  154  155 1   
   164  154  156 1   
   165  163  164 1   
   166  163  168 1   
   167  164  165 1   
   168  164  166 1   
   169  164  167 1   
   170  170  172 1   
   171  170  174 1   
   172  171  173 1   
   173  171  175 1   
   174  176  177 1   
   175  176  178 1   
   176  179  180 1   
   177  179  181 1   
@<TRIPOS>SUBSTRUCTURE
     1 MOL         1 TEMP              0 ****  ****    0 ROOT
