@<TRIPOS>MOLECULE
MOL
  185   180     1     0     0
SMALL
resp


@<TRIPOS>ATOM
      1 C1         -5.6240    1.1610   -4.2680 c3        1 MOL     -0.382838
      2 C2         -6.3100    1.0980   -2.8620 c         1 MOL      0.642790
      3 O1         -5.6600    0.7510   -1.8760 o         1 MOL     -0.513634
      4 H1         -4.7900    1.8620   -4.2340 hc        1 MOL      0.111853
      5 H2         -5.2550    0.1720   -4.5380 hc        1 MOL      0.111853
      6 H3         -6.3480    1.4950   -5.0110 hc        1 MOL      0.111853
      7 N1         -7.5940    1.4180   -2.6790 n         1 MOL     -0.521843
      8 C3         -8.3260    1.4660   -1.3400 c3        1 MOL      0.053435
      9 C4         -8.0930    0.2150   -0.3740 c         1 MOL      0.586651
     10 O2         -8.1800    0.3360    0.8240 o         1 MOL     -0.548124
     11 C5         -8.0750    2.8500   -0.5920 c3        1 MOL     -0.176899
     12 C6         -8.2320    4.0310   -1.5700 c         1 MOL      0.639562
     13 O3         -7.2580    4.8250   -1.7910 o         1 MOL     -0.655253
     14 O4         -9.2800    4.1200   -2.2290 o         1 MOL     -0.655253
     15 H4         -8.1590    1.7250   -3.4490 hn        1 MOL      0.327946
     16 H5         -9.4000    1.4080   -1.5290 h1        1 MOL      0.045101
     17 H6         -7.1200    2.8610   -0.0660 hc        1 MOL      0.052701
     18 H7         -8.7740    2.9580    0.2370 hc        1 MOL      0.052701
     19 N2         -7.8530   -0.9990   -0.8980 n         1 MOL     -0.483363
     20 C7         -7.6850   -2.2270   -0.1130 c3        1 MOL      0.285881
     21 C8         -6.2340   -2.8240   -0.0100 c         1 MOL      0.346489
     22 O5         -6.0230   -3.9390    0.5380 o         1 MOL     -0.501307
     23 C9         -8.7080   -3.1730   -0.7170 c3        1 MOL     -0.187114
     24 C10       -10.2180   -2.9230   -0.4350 c3        1 MOL     -0.012236
     25 C11       -10.5520   -2.7120    1.0510 c3        1 MOL     -0.031504
     26 C12       -12.0360   -2.9090    1.1460 c3        1 MOL      0.035490
     27 N3        -12.4870   -3.0060    2.5460 n4        1 MOL     -0.373099
     28 H8         -7.7440   -1.0500   -1.8960 hn        1 MOL      0.219381
     29 H9         -7.9320   -2.1470    0.9480 h1        1 MOL      0.026414
     30 H10        -8.4920   -4.1400   -0.2600 hc        1 MOL      0.055314
     31 H11        -8.6520   -3.2320   -1.8040 hc        1 MOL      0.055314
     32 H12       -10.6920   -3.7840   -0.8960 hc        1 MOL      0.034296
     33 H13       -10.5700   -2.0990   -1.0560 hc        1 MOL      0.034296
     34 H14       -10.3040   -1.7010    1.3480 hc        1 MOL      0.054745
     35 H15       -10.0890   -3.4820    1.6700 hc        1 MOL      0.054745
     36 H16       -12.0860   -3.8300    0.5740 hx        1 MOL      0.068883
     37 H17       -12.5760   -2.0620    0.7160 hx        1 MOL      0.068883
     38 H18       -11.9550   -2.3150    3.0440 hn        1 MOL      0.337998
     39 H19       -13.4840   -2.8720    2.6030 hn        1 MOL      0.337998
     40 H20       -12.2120   -3.9320    2.8330 hn        1 MOL      0.337998
     41 N4         -5.2910   -1.9090   -0.3590 n         1 MOL     -0.308433
     42 C13        -3.8510   -2.0680   -0.2790 c3        1 MOL     -0.073287
     43 C14        -3.4300   -2.7830    1.0120 c         1 MOL      0.651953
     44 O6         -3.8920   -2.3260    2.0930 o         1 MOL     -0.516887
     45 C15        -3.1180   -0.6770   -0.4180 c3        1 MOL     -0.117489
     46 C16        -1.6180   -0.9690   -0.7180 c         1 MOL      0.566284
     47 O7         -1.2520   -1.2740   -1.8840 o         1 MOL     -0.675081
     48 O8         -0.7910   -0.9130    0.2150 o         1 MOL     -0.675081
     49 H21        -5.5640   -0.9780   -0.6340 hn        1 MOL      0.243154
     50 H22        -3.5710   -2.6690   -1.1490 h1        1 MOL      0.044327
     51 H23        -3.1140   -0.1900    0.5530 hc        1 MOL      0.113187
     52 H24        -3.5360   -0.1530   -1.2700 hc        1 MOL      0.113187
     53 N5         -2.5530   -3.7440    0.8910 n         1 MOL     -0.402591
     54 C17        -2.0330   -4.5630    2.0560 c3        1 MOL     -0.131059
     55 C18        -1.3900   -3.8630    3.1910 c         1 MOL      0.563028
     56 O9         -1.4370   -4.3650    4.3020 o         1 MOL     -0.552907
     57 H25        -2.1830   -3.9440   -0.0250 hn        1 MOL      0.256327
     58 H26        -1.1700   -5.0870    1.6470 h1        1 MOL      0.105399
     59 H27        -2.7030   -5.3220    2.4650 h1        1 MOL      0.105399
     60 N6         -0.9490   -2.6050    2.9700 n         1 MOL     -0.416830
     61 C19        -0.2910   -1.8160    4.0300 c3        1 MOL      0.069773
     62 C20        -0.6530   -0.3550    3.9230 c         1 MOL      0.352155
     63 O10        -0.1690    0.3890    4.7570 o         1 MOL     -0.512868
     64 C21         1.2780   -2.0020    3.9230 c3        1 MOL     -0.436290
     65 C22         1.8630   -1.2740    2.6720 c         1 MOL      0.846123
     66 N7          2.4750   -0.1400    2.8240 n         1 MOL     -0.877497
     67 O11         1.7130   -1.7370    1.5640 o         1 MOL     -0.733106
     68 H28        -0.7750   -2.2630    2.0280 hn        1 MOL      0.434500
     69 H29        -0.6100   -2.1630    5.0130 h1        1 MOL      0.133484
     70 H30         1.5040   -3.0720    3.8910 hc        1 MOL      0.140334
     71 H31         1.7290   -1.5090    4.7890 hc        1 MOL      0.140334
     72 H32         2.6130    0.2440    3.7500 hn        1 MOL      0.370472
     73 H33         2.8660    0.3670    2.0480 hn        1 MOL      0.370472
     74 N8         -1.5780    0.0190    3.0300 n         1 MOL      0.019652
     75 C23        -2.0860    1.4210    2.9320 c3        1 MOL     -0.244032
     76 C24        -1.2750    2.4200    2.1510 c         1 MOL      0.546557
     77 O12        -1.1300    3.5830    2.5210 o         1 MOL     -0.557639
     78 H34        -2.0600   -0.7420    2.5630 hn        1 MOL     -0.000593
     79 H35        -2.1570    1.7570    3.9670 h1        1 MOL      0.122262
     80 H36        -3.1110    1.3970    2.5720 h1        1 MOL      0.122262
     81 N9         -0.6340    1.9160    1.1250 n         1 MOL     -0.156285
     82 C25         0.1370    2.7100    0.1760 c3        1 MOL      0.105400
     83 C26         1.3700    1.9900   -0.3910 c         1 MOL      0.010640
     84 O13         1.5910    0.8330   -0.0770 o         1 MOL     -0.003398
     85 C27        -0.7220    2.9910   -1.0150 c3        1 MOL     -0.072616
     86 C28        -1.9580    3.8950   -0.8280 ca        1 MOL     -0.119548
     87 C29        -1.8070    5.2280   -0.3870 ca        1 MOL     -0.112862
     88 C30        -3.2210    3.2600   -0.9540 ca        1 MOL     -0.112862
     89 C31        -2.9510    6.0010   -0.2890 ca        1 MOL     -0.237774
     90 C32        -4.3060    4.0850   -0.8890 ca        1 MOL     -0.237774
     91 C33        -4.1810    5.4670   -0.5670 ca        1 MOL      0.412411
     92 O14        -5.3580    6.1620   -0.5540 oh        1 MOL     -0.584540
     93 H37        -0.6780    0.9100    1.1240 hn        1 MOL     -0.057953
     94 H38         0.4170    3.6590    0.6440 h1        1 MOL      0.067187
     95 H39        -1.1770    2.0520   -1.3500 hc        1 MOL      0.060194
     96 H40        -0.1040    3.4280   -1.8020 hc        1 MOL      0.060194
     97 H41        -0.8230    5.6280   -0.1970 ha        1 MOL      0.099906
     98 H42        -3.3720    2.2140   -1.1790 ha        1 MOL      0.099906
     99 H43        -2.9680    7.0330    0.0320 ha        1 MOL      0.125928
    100 H44        -5.3220    3.7040   -0.9090 ha        1 MOL      0.125928
    101 H45        -6.0920    5.5780   -0.7390 ho        1 MOL      0.411452
    102 N10         2.1610    2.7520   -1.1250 n         1 MOL     -0.282105
    103 C34         3.5640    2.5170   -1.3190 c3        1 MOL     -0.121239
    104 C35         4.2710    2.3000    0.0390 c         1 MOL      0.130811
    105 O15         4.8270    1.2220    0.3280 o         1 MOL     -0.315200
    106 C36         4.2170    3.6530   -2.1770 c3        1 MOL      0.037198
    107 C37         3.4480    3.7290   -3.4840 c3        1 MOL      0.142903
    108 C38         5.7590    3.4720   -2.2990 c3        1 MOL     -0.218663
    109 C39         3.6210    2.6020   -4.4690 c3        1 MOL     -0.546721
    110 H46         1.8240    3.6940   -1.3010 hn        1 MOL      0.293952
    111 H47         3.6510    1.6310   -1.9520 h1        1 MOL      0.123334
    112 H48         4.1160    4.5990   -1.6310 hc        1 MOL     -0.000497
    113 H49         3.7150    4.6720   -3.9520 hc        1 MOL      0.004166
    114 H50         2.4270    3.9880   -3.1900 hc        1 MOL      0.004166
    115 H51         6.0230    2.4940   -2.6830 hc        1 MOL      0.078797
    116 H52         6.1800    4.1820   -3.0140 hc        1 MOL      0.078797
    117 H53         6.3180    3.5880   -1.3650 hc        1 MOL      0.078797
    118 H54         3.2820    1.6690   -4.0260 hc        1 MOL      0.155429
    119 H55         3.0660    2.9310   -5.3530 hc        1 MOL      0.155429
    120 H56         4.6600    2.5740   -4.8240 hc        1 MOL      0.155429
    121 N11         4.1680    3.2380    0.9880 n         1 MOL     -0.096328
    122 C40         4.4140    3.0120    2.4070 c3        1 MOL     -0.215359
    123 C41         5.8350    2.4360    2.6620 c         1 MOL      0.519216
    124 O16         5.9580    1.4770    3.4430 o         1 MOL     -0.502189
    125 C42         4.2410    4.3220    3.1280 c3        1 MOL      0.088423
    126 O17         4.9620    5.3270    2.4600 oh        1 MOL     -0.661999
    127 H57         3.8440    4.1630    0.7240 hn        1 MOL      0.277172
    128 H58         3.6880    2.2750    2.7590 h1        1 MOL      0.149101
    129 H59         4.5920    4.3560    4.1550 h1        1 MOL      0.085900
    130 H60         3.1840    4.5640    3.0760 h1        1 MOL      0.085900
    131 H61         5.0990    6.1540    2.9360 ho        1 MOL      0.449251
    132 N12         6.8980    2.8830    1.9640 n         1 MOL     -0.320823
    133 C43         8.2800    2.2710    1.9050 c3        1 MOL      0.221069
    134 C44         8.3210    0.6610    1.8720 c         1 MOL      0.459018
    135 O18         9.1600    0.0280    2.5420 o         1 MOL     -0.501389
    136 C45         9.2100    2.9190    2.9320 c3        1 MOL     -0.273023
    137 H62         6.7840    3.6650    1.3470 hn        1 MOL      0.221180
    138 H63         8.7030    2.5060    0.9250 h1        1 MOL      0.021891
    139 H64         8.9830    2.6050    3.9470 hc        1 MOL      0.076122
    140 H65        10.2220    2.5840    2.7190 hc        1 MOL      0.076122
    141 H66         9.2110    4.0120    2.8930 hc        1 MOL      0.076122
    142 N13         7.3250    0.1030    1.1130 n         1 MOL     -0.458600
    143 C46         7.2100   -1.3870    0.9720 c3        1 MOL      0.333933
    144 C47         7.0000   -1.7880   -0.4990 c         1 MOL      0.281146
    145 O19         6.6070   -0.9950   -1.3590 o         1 MOL     -0.453669
    146 C48         6.1240   -1.9760    1.8700 c3        1 MOL     -0.306158
    147 H67         6.6800    0.6650    0.5850 hn        1 MOL      0.174981
    148 H68         8.1980   -1.8020    1.2150 h1        1 MOL     -0.015341
    149 H69         5.1930   -1.5710    1.4740 hc        1 MOL      0.088725
    150 H70         6.1300   -3.0560    1.7530 hc        1 MOL      0.088725
    151 H71         6.3470   -1.7120    2.9070 hc        1 MOL      0.088725
    152 N14         7.2780   -3.0730   -0.7710 n         1 MOL     -0.136635
    153 C49         7.1570   -3.7460   -2.0620 c3        1 MOL     -0.087812
    154 C50         7.9210   -3.0730   -3.1990 c         1 MOL      0.449991
    155 O20         7.4680   -2.7990   -4.3010 o         1 MOL     -0.481273
    156 C51         5.6560   -3.9460   -2.5270 c3        1 MOL      0.088690
    157 C52         4.8130   -4.9400   -1.6960 c3        1 MOL     -0.196478
    158 C53         3.3430   -4.6380   -1.9770 c         1 MOL      0.782801
    159 O21         2.7650   -3.8300   -1.2080 o         1 MOL     -0.735439
    160 O22         2.7280   -5.1570   -2.9310 o         1 MOL     -0.735439
    161 H72         7.7410   -3.6000   -0.0420 hn        1 MOL      0.213226
    162 H73         7.6150   -4.7390   -1.9610 h1        1 MOL      0.058628
    163 H74         5.5210   -4.2220   -3.5730 hc        1 MOL      0.020327
    164 H75         5.1710   -2.9840   -2.4070 hc        1 MOL      0.020327
    165 H76         4.9710   -4.8950   -0.6200 hc        1 MOL      0.017730
    166 H77         4.9520   -5.9800   -2.0330 hc        1 MOL      0.017730
    167 N15         9.1760   -2.7140   -2.8770 n         1 MOL     -0.345419
    168 C54         9.8430   -1.6230   -3.5280 c3        1 MOL     -0.033805
    169 H78        10.1910   -0.9120   -2.7790 h1        1 MOL      0.058725
    170 H79        10.6950   -2.0030   -4.0920 h1        1 MOL      0.058725
    171 H80         9.1500   -1.1260   -4.2070 h1        1 MOL      0.058725
    172 H81         9.4700   -2.9600   -1.9420 hn        1 MOL      0.221984
    173 Ca1         1.2520   -1.6810   -1.0920 Ca        1 MOL      1.752507
    174 O23         3.7420   -0.9220   -1.0190 oh        1 MOL     -0.904496
    175 H82         4.5690   -1.0500   -1.4840 ho        1 MOL      0.425869
    176 H83         3.9420   -0.2710   -0.3490 ho        1 MOL      0.425869
    177 O24         0.0390   -3.9140   -0.3100 oh        1 MOL     -0.904496
    178 H84         0.6920   -4.6020   -0.1500 ho        1 MOL      0.425869
    179 H85        -0.5350   -4.2790   -0.9800 ho        1 MOL      0.425869
    180 O25         1.1980   -2.9150   -3.2860 oh        1 MOL     -0.904496
    181 H86         0.8570   -2.8290   -4.1710 ho        1 MOL      0.425869
    182 H87         1.6230   -3.7720   -3.2640 ho        1 MOL      0.425869
    183 O26         1.2750    0.1830   -3.0410 oh        1 MOL     -0.904496
    184 H88         0.6250    0.6520   -3.5650 ho        1 MOL      0.425869
    185 H89         2.1040    0.3270   -3.5030 ho        1 MOL      0.425869
@<TRIPOS>BOND
     1    1    2 1   
     2    1    4 1   
     3    1    5 1   
     4    1    6 1   
     5    2    3 2   
     6    2    7 1   
     7    7    8 1   
     8    7   15 1   
     9    8    9 1   
    10    8   11 1   
    11    8   16 1   
    12    9   10 2   
    13    9   19 1   
    14   11   12 1   
    15   11   17 1   
    16   11   18 1   
    17   12   13 1   
    18   12   14 1   
    19   19   20 1   
    20   19   28 1   
    21   20   21 1   
    22   20   23 1   
    23   20   29 1   
    24   21   22 2   
    25   21   41 1   
    26   23   24 1   
    27   23   30 1   
    28   23   31 1   
    29   24   25 1   
    30   24   32 1   
    31   24   33 1   
    32   25   26 1   
    33   25   34 1   
    34   25   35 1   
    35   26   27 1   
    36   26   36 1   
    37   26   37 1   
    38   27   38 1   
    39   27   39 1   
    40   27   40 1   
    41   41   42 1   
    42   41   49 1   
    43   42   43 1   
    44   42   45 1   
    45   42   50 1   
    46   43   44 2   
    47   43   53 1   
    48   45   46 1   
    49   45   51 1   
    50   45   52 1   
    51   46   47 1   
    52   46   48 1   
    53   53   54 1   
    54   53   57 1   
    55   54   55 1   
    56   54   58 1   
    57   54   59 1   
    58   55   56 2   
    59   55   60 1   
    60   60   61 1   
    61   60   68 1   
    62   61   62 1   
    63   61   64 1   
    64   61   69 1   
    65   62   63 2   
    66   62   74 1   
    67   64   65 1   
    68   64   70 1   
    69   64   71 1   
    70   65   66 1   
    71   65   67 2   
    72   66   72 1   
    73   66   73 1   
    74   74   75 1   
    75   74   78 1   
    76   75   76 1   
    77   75   79 1   
    78   75   80 1   
    79   76   77 2   
    80   76   81 1   
    81   81   82 1   
    82   81   93 1   
    83   82   83 1   
    84   82   85 1   
    85   82   94 1   
    86   83   84 2   
    87   83  102 1   
    88   85   86 1   
    89   85   95 1   
    90   85   96 1   
    91   86   87 ar  
    92   86   88 ar  
    93   87   89 ar  
    94   87   97 1   
    95   88   90 ar  
    96   88   98 1   
    97   89   91 ar  
    98   89   99 1   
    99   90   91 ar  
   100   90  100 1   
   101   91   92 1   
   102   92  101 1   
   103  102  103 1   
   104  102  110 1   
   105  103  104 1   
   106  103  106 1   
   107  103  111 1   
   108  104  105 2   
   109  104  121 1   
   110  106  107 1   
   111  106  108 1   
   112  106  112 1   
   113  107  109 1   
   114  107  113 1   
   115  107  114 1   
   116  108  115 1   
   117  108  116 1   
   118  108  117 1   
   119  109  118 1   
   120  109  119 1   
   121  109  120 1   
   122  121  122 1   
   123  121  127 1   
   124  122  123 1   
   125  122  125 1   
   126  122  128 1   
   127  123  124 2   
   128  123  132 1   
   129  125  126 1   
   130  125  129 1   
   131  125  130 1   
   132  126  131 1   
   133  132  133 1   
   134  132  137 1   
   135  133  134 1   
   136  133  136 1   
   137  133  138 1   
   138  134  135 2   
   139  134  142 1   
   140  136  139 1   
   141  136  140 1   
   142  136  141 1   
   143  142  143 1   
   144  142  147 1   
   145  143  144 1   
   146  143  146 1   
   147  143  148 1   
   148  144  145 2   
   149  144  152 1   
   150  146  149 1   
   151  146  150 1   
   152  146  151 1   
   153  152  153 1   
   154  152  161 1   
   155  153  154 1   
   156  153  156 1   
   157  153  162 1   
   158  154  155 2   
   159  154  167 1   
   160  156  157 1   
   161  156  163 1   
   162  156  164 1   
   163  157  158 1   
   164  157  165 1   
   165  157  166 1   
   166  158  159 1   
   167  158  160 1   
   168  167  168 1   
   169  167  172 1   
   170  168  169 1   
   171  168  170 1   
   172  168  171 1   
   173  174  175 1   
   174  174  176 1   
   175  177  178 1   
   176  177  179 1   
   177  180  181 1   
   178  180  182 1   
   179  183  184 1   
   180  183  185 1   
@<TRIPOS>SUBSTRUCTURE
     1 MOL         1 TEMP              0 ****  ****    0 ROOT
