@<TRIPOS>MOLECULE
MOL
  195   189     1     0     0
SMALL
resp


@<TRIPOS>ATOM
      1 C1         -3.3510   -5.1540    2.7030 c3        1 MOL     -0.455670
      2 C2         -2.1520   -4.8990    1.7760 c         1 MOL      0.675290
      3 O1         -1.3930   -3.9780    2.0800 o         1 MOL     -0.499838
      4 H1         -4.1630   -4.4770    2.4400 hc        1 MOL      0.098987
      5 H2         -3.6860   -6.1840    2.5890 hc        1 MOL      0.098987
      6 H3         -3.0540   -4.9800    3.7370 hc        1 MOL      0.098987
      7 N1         -1.9670   -5.7200    0.7160 n         1 MOL     -0.697726
      8 C3         -1.0770   -5.5250   -0.3680 c3        1 MOL     -0.077109
      9 C4          0.3820   -5.1920    0.0200 c         1 MOL      0.853019
     10 O2          1.1290   -4.5550   -0.6990 o         1 MOL     -0.574182
     11 C5         -1.5930   -4.4340   -1.2660 c3        1 MOL     -0.539977
     12 C6         -3.0420   -4.7200   -1.6790 c         1 MOL      0.801122
     13 O3         -3.1370   -5.7510   -2.3110 o         1 MOL     -0.636279
     14 O4         -3.9480   -3.9310   -1.3740 o         1 MOL     -0.636279
     15 H4         -2.6050   -6.4740    0.4790 hn        1 MOL      0.379018
     16 H5         -1.0660   -6.4720   -0.9010 h1        1 MOL      0.141466
     17 H6         -0.9940   -4.3600   -2.1690 hc        1 MOL      0.167111
     18 H7         -1.3970   -3.4600   -0.8080 hc        1 MOL      0.167111
     19 N2          0.8260   -5.7240    1.1330 n         1 MOL     -0.757156
     20 C7          2.1950   -5.2970    1.6350 c3        1 MOL     -0.079081
     21 C8          3.3800   -5.8590    0.8630 c         1 MOL      0.395858
     22 O5          3.2400   -6.9180    0.1800 o         1 MOL     -0.526583
     23 C9          2.3040   -5.5750    3.1470 c3        1 MOL      0.153013
     24 C10         2.0110   -7.0940    3.4830 c3        1 MOL     -0.000941
     25 C11         1.3340   -4.6730    3.9000 c3        1 MOL     -0.408796
     26 C12         2.0200   -7.6300    4.9250 c3        1 MOL     -0.248557
     27 H8          0.1560   -6.1940    1.7170 hn        1 MOL      0.417167
     28 H9          2.1720   -4.2210    1.4490 h1        1 MOL      0.148034
     29 H10         3.2690   -5.3020    3.5810 hc        1 MOL      0.081330
     30 H11         2.5870   -7.7950    2.8710 hc        1 MOL      0.043161
     31 H12         1.0220   -7.3210    3.0850 hc        1 MOL      0.043161
     32 H13         1.3430   -3.6610    3.4910 hc        1 MOL      0.104824
     33 H14         0.3120   -5.0230    3.7110 hc        1 MOL      0.104824
     34 H15         1.6970   -4.5210    4.9140 hc        1 MOL      0.104824
     35 H16         2.9600   -7.3410    5.3980 hc        1 MOL      0.053817
     36 H17         1.2990   -7.0960    5.5470 hc        1 MOL      0.053817
     37 H18         1.6720   -8.6600    4.9710 hc        1 MOL      0.053817
     38 N3          4.5450   -5.2580    0.7390 n         1 MOL     -0.407678
     39 C13         4.8040   -3.8740    0.9940 c3        1 MOL     -0.035539
     40 C14         4.4150   -3.0470   -0.2420 c         1 MOL      0.415831
     41 O6          4.3440   -1.7890   -0.2200 o         1 MOL     -0.556852
     42 C15         6.2780   -3.6380    1.4080 c3        1 MOL     -0.091041
     43 C16         7.2350   -4.4570    0.5440 c         1 MOL      0.593577
     44 O7          7.2190   -5.7380    0.5360 o         1 MOL     -0.670589
     45 O8          7.9500   -3.7570   -0.2460 o         1 MOL     -0.670589
     46 H19         5.2880   -5.8200    0.3370 hn        1 MOL      0.274603
     47 H20         4.2210   -3.5270    1.8490 h1        1 MOL      0.052642
     48 H21         6.4330   -3.9820    2.4310 hc        1 MOL      0.023566
     49 H22         6.5200   -2.5710    1.3330 hc        1 MOL      0.023566
     50 N4          4.1720   -3.6900   -1.3800 n         1 MOL     -0.010625
     51 C17         3.9850   -3.0170   -2.6640 c3        1 MOL     -0.456969
     52 C18         5.2700   -2.3020   -3.2050 c         1 MOL      0.621359
     53 O9          6.2580   -2.9050   -3.6740 o         1 MOL     -0.574977
     54 H23         4.3320   -4.6860   -1.4470 hn        1 MOL      0.263461
     55 H24         3.1630   -2.2940   -2.6310 h1        1 MOL      0.152826
     56 H25         3.7250   -3.7580   -3.4120 h1        1 MOL      0.152826
     57 N5          5.1860   -0.9780   -3.2300 n         1 MOL     -0.410848
     58 C19         6.2140   -0.0140   -3.6700 c3        1 MOL      0.069489
     59 C20         7.1060    0.5590   -2.5220 c         1 MOL      0.397628
     60 O10         7.8620    1.4900   -2.6330 o         1 MOL     -0.546429
     61 C21         5.4770    1.1110   -4.4410 c3        1 MOL     -0.292684
     62 C22         4.3380    1.8780   -3.6150 c         1 MOL      0.719273
     63 O11         4.1390    1.5460   -2.4200 o         1 MOL     -0.691600
     64 O12         3.7150    2.8170   -4.1380 o         1 MOL     -0.691600
     65 H26         4.4010   -0.5790   -2.7310 hn        1 MOL      0.258483
     66 H27         6.8540   -0.5370   -4.3720 h1        1 MOL      0.084114
     67 H28         5.1660    0.7710   -5.4330 hc        1 MOL      0.052766
     68 H29         6.1690    1.9180   -4.7000 hc        1 MOL      0.052766
     69 N6          6.8340    0.0220   -1.3740 n         1 MOL     -0.124203
     70 C23         7.4250    0.4180   -0.1190 c3        1 MOL     -0.171624
     71 C24         7.0970    1.8540    0.3680 c         1 MOL      0.562315
     72 O13         7.5960    2.2900    1.4010 o         1 MOL     -0.604702
     73 H30         6.1480   -0.7230   -1.4200 hn        1 MOL      0.216442
     74 H31         8.5040    0.2740   -0.1310 h1        1 MOL      0.101713
     75 H32         7.0740   -0.2960    0.6390 h1        1 MOL      0.101713
     76 N7          6.1840    2.5320   -0.3260 n         1 MOL     -0.267270
     77 C25         5.5940    3.9050   -0.1150 c3        1 MOL     -0.004454
     78 C26         5.0080    4.0700    1.2790 c         1 MOL      0.259745
     79 O14         4.8280    5.2320    1.6700 o         1 MOL     -0.464985
     80 C27         6.7240    4.9230   -0.4840 c3        1 MOL      0.167393
     81 C28         7.0820    5.0450   -1.9860 c3        1 MOL     -0.112565
     82 C29         8.1780    6.0410   -2.4270 c         1 MOL      0.623664
     83 N8          8.4290    6.2400   -3.6910 n         1 MOL     -0.792044
     84 O15         8.7290    6.6920   -1.5290 o         1 MOL     -0.584979
     85 H33         5.8010    2.0250   -1.1130 hn        1 MOL      0.191640
     86 H34         4.7110    4.0000   -0.7470 h1        1 MOL      0.127604
     87 H35         7.6660    4.6500   -0.0180 hc        1 MOL     -0.006266
     88 H36         6.5440    5.9320   -0.1240 hc        1 MOL     -0.006266
     89 H37         6.1800    5.3560   -2.5200 hc        1 MOL      0.024939
     90 H38         7.3140    4.0340   -2.3090 hc        1 MOL      0.024939
     91 H39         8.0750    5.5280   -4.3150 hn        1 MOL      0.359487
     92 H40         8.9460    7.0780   -3.9430 hn        1 MOL      0.359487
     93 N9          4.8930    3.0120    2.1340 n         1 MOL     -0.114004
     94 C30         4.1570    3.1750    3.4110 c3        1 MOL     -0.113855
     95 C31         2.6360    3.2250    3.3390 c         1 MOL      0.569897
     96 O16         1.9900    3.9330    4.1090 o         1 MOL     -0.556573
     97 C32         4.5960    2.1020    4.3720 c3        1 MOL      0.113611
     98 C33         4.6750    0.6820    3.8490 c3        1 MOL     -0.220633
     99 C34         5.9530    2.5030    5.0560 c3        1 MOL     -0.220633
    100 H41         5.2190    2.1000    1.8560 hn        1 MOL      0.154552
    101 H42         4.4340    4.1430    3.8500 h1        1 MOL      0.097667
    102 H43         3.8700    2.0720    5.1880 hc        1 MOL     -0.006850
    103 H44         3.6820    0.3830    3.5110 hc        1 MOL      0.058289
    104 H45         5.3320    0.5500    2.9900 hc        1 MOL      0.058289
    105 H46         5.0740    0.0010    4.6070 hc        1 MOL      0.058289
    106 H47         6.3390    1.7030    5.6900 hc        1 MOL      0.058289
    107 H48         6.8100    2.5870    4.3880 hc        1 MOL      0.058289
    108 H49         5.9610    3.3750    5.6940 hc        1 MOL      0.058289
    109 N10         2.1270    2.5760    2.3010 n         1 MOL     -0.327487
    110 C35         0.7720    2.2340    1.9390 c3        1 MOL      0.099434
    111 C36         0.1000    3.2010    0.9090 c         1 MOL      0.577918
    112 O17         0.8060    3.9810    0.2870 o         1 MOL     -0.514011
    113 C37         0.6270    0.7160    1.6450 c3        1 MOL     -0.279533
    114 C38        -0.8130    0.2240    1.7520 c         1 MOL      0.806550
    115 N11        -1.1630   -1.0130    1.4940 n         1 MOL     -0.968617
    116 O18        -1.6490    0.9800    2.1350 o         1 MOL     -0.580422
    117 H50         2.7510    1.9640    1.7920 hn        1 MOL      0.213801
    118 H51         0.2270    2.4610    2.8560 h1        1 MOL      0.035012
    119 H52         1.0370    0.0560    2.4050 hc        1 MOL      0.094415
    120 H53         1.0770    0.4110    0.6940 hc        1 MOL      0.094415
    121 H54        -0.4810   -1.6700    1.1580 hn        1 MOL      0.427525
    122 H55        -2.1500   -1.2400    1.6090 hn        1 MOL      0.427525
    123 N12        -1.2340    3.2080    0.6980 n         1 MOL     -0.384768
    124 C39        -1.9400    3.9780   -0.2970 c3        1 MOL     -0.095960
    125 C40        -3.3780    4.1970    0.2500 c         1 MOL      0.648447
    126 O19        -3.9370    3.4740    1.0450 o         1 MOL     -0.538201
    127 C41        -1.7690    3.2760   -1.6670 c3        1 MOL     -0.178960
    128 C42        -2.5110    1.9800   -1.8780 ca        1 MOL      0.096451
    129 C43        -2.0040    0.7200   -1.4080 ca        1 MOL     -0.129074
    130 C44        -3.6240    1.9330   -2.7380 ca        1 MOL     -0.129074
    131 C45        -2.6320   -0.5240   -1.6430 ca        1 MOL     -0.262421
    132 C46        -4.2040    0.6620   -3.0400 ca        1 MOL     -0.262421
    133 C47        -3.7000   -0.5340   -2.5630 ca        1 MOL      0.284469
    134 O20        -4.3700   -1.7190   -2.7630 oh        1 MOL     -0.464913
    135 H56        -1.7630    2.5070    1.1990 hn        1 MOL      0.204703
    136 H57        -1.3580    4.9020   -0.3470 h1        1 MOL      0.104449
    137 H58        -0.7410    2.9210   -1.7060 hc        1 MOL      0.097827
    138 H59        -1.9140    3.9660   -2.4940 hc        1 MOL      0.097827
    139 H60        -1.1320    0.7670   -0.7720 ha        1 MOL      0.102274
    140 H61        -3.9980    2.8450   -3.1730 ha        1 MOL      0.102274
    141 H62        -2.2490   -1.3850   -1.1220 ha        1 MOL      0.144213
    142 H63        -5.1770    0.6430   -3.4980 ha        1 MOL      0.144213
    143 H64        -3.9460   -2.4190   -2.2780 ho        1 MOL      0.318758
    144 N13        -4.0230    5.2840   -0.2740 n         1 MOL     -0.552057
    145 C48        -5.3880    5.6300    0.0110 c3        1 MOL      0.131255
    146 C49        -6.2660    5.1640   -1.1340 c         1 MOL      0.446547
    147 O21        -6.6790    5.9500   -1.9920 o         1 MOL     -0.600903
    148 C50        -5.5730    7.1830    0.2620 c3        1 MOL     -0.059616
    149 C51        -4.7070    7.6570    1.4890 c3        1 MOL     -0.163624
    150 C52        -5.1320    9.0410    2.0610 c         1 MOL      0.690129
    151 O22        -5.1170   10.1100    1.4210 o         1 MOL     -0.654458
    152 O23        -5.6620    9.1000    3.2190 o         1 MOL     -0.654458
    153 H65        -3.5900    5.7870   -1.0280 hn        1 MOL      0.326626
    154 H66        -5.6530    5.0900    0.9100 h1        1 MOL      0.138324
    155 H67        -6.6270    7.3690    0.4720 hc        1 MOL      0.047999
    156 H68        -5.2880    7.8000   -0.5860 hc        1 MOL      0.047999
    157 H69        -3.6530    7.7750    1.2540 hc        1 MOL      0.017012
    158 H70        -4.7700    6.9290    2.2920 hc        1 MOL      0.017012
    159 N14        -6.5770    3.9630   -1.3990 n         1 MOL     -0.249375
    160 C53        -6.5130    2.7390   -0.5500 c3        1 MOL     -0.275009
    161 C54        -7.1540    2.9730    0.8360 c         1 MOL      0.374329
    162 O24        -7.9750    3.8490    0.9860 o         1 MOL     -0.493497
    163 C55        -7.3970    1.6420   -1.2370 c3        1 MOL      0.200431
    164 C56        -7.3830    0.2170   -0.6120 c3        1 MOL     -0.071217
    165 C57        -8.0180   -0.8470   -1.4880 c         1 MOL      0.528483
    166 O25        -8.6150   -0.5640   -2.5500 o         1 MOL     -0.645616
    167 O26        -7.8070   -2.0420   -1.1250 o         1 MOL     -0.645616
    168 H71        -7.0790    3.9480   -2.2720 hn        1 MOL      0.257480
    169 H72        -5.4700    2.4360   -0.4330 h1        1 MOL      0.115189
    170 H73        -6.9060    1.6570   -2.2060 hc        1 MOL      0.003889
    171 H74        -8.3690    1.9340   -1.6480 hc        1 MOL      0.003889
    172 H75        -7.8820    0.0880    0.3510 hc        1 MOL     -0.010447
    173 H76        -6.3240   -0.0220   -0.5750 hc        1 MOL     -0.010447
    174 N15        -6.8030    2.1140    1.8320 n         1 MOL     -0.151429
    175 C58        -7.2450    2.0940    3.2570 c3        1 MOL     -0.193171
    176 H77        -8.2620    2.4790    3.3270 h1        1 MOL      0.085459
    177 H78        -7.2160    1.0720    3.6330 h1        1 MOL      0.085459
    178 H79        -6.5790    2.7190    3.8530 h1        1 MOL      0.085459
    179 H80        -6.0860    1.4620    1.5450 hn        1 MOL      0.242030
    180 Ca1        -6.4730   -4.1410   -0.7840 Ca        1 MOL      1.704176
    181 O27        -5.5920   -2.3190    1.0800 oh        1 MOL     -0.861425
    182 H81        -4.9400   -1.6120    1.1160 ho        1 MOL      0.394629
    183 H82        -5.5670   -2.7170    1.9550 ho        1 MOL      0.394629
    184 O28        -5.5840   -6.6670   -1.1890 oh        1 MOL     -0.861425
    185 H83        -5.8960   -7.5700   -1.0850 ho        1 MOL      0.394629
    186 H84        -4.9370   -6.7140   -1.8920 ho        1 MOL      0.394629
    187 O29        -8.6310   -5.4550   -1.5980 oh        1 MOL     -0.861425
    188 H85        -9.0760   -5.2930   -2.4210 ho        1 MOL      0.394629
    189 H86        -9.2980   -5.8340   -1.0260 ho        1 MOL      0.394629
    190 O30        -8.4140   -4.1660    1.0860 oh        1 MOL     -0.861425
    191 H87        -8.5270   -4.8920    1.7040 ho        1 MOL      0.394629
    192 H88        -9.2970   -3.8140    0.9740 ho        1 MOL      0.394629
    193 O31        -6.0680   -4.3660   -3.3300 oh        1 MOL     -0.861425
    194 H89        -6.2830   -3.8210   -4.0900 ho        1 MOL      0.394629
    195 H90        -5.2540   -4.8120   -3.5870 ho        1 MOL      0.394629
@<TRIPOS>BOND
     1    1    2 1   
     2    1    4 1   
     3    1    5 1   
     4    1    6 1   
     5    2    3 2   
     6    2    7 1   
     7    7    8 1   
     8    7   15 1   
     9    8    9 1   
    10    8   11 1   
    11    8   16 1   
    12    9   10 2   
    13    9   19 1   
    14   11   12 1   
    15   11   17 1   
    16   11   18 1   
    17   12   13 1   
    18   12   14 1   
    19   19   20 1   
    20   19   27 1   
    21   20   21 1   
    22   20   23 1   
    23   20   28 1   
    24   21   22 2   
    25   21   38 1   
    26   23   24 1   
    27   23   25 1   
    28   23   29 1   
    29   24   26 1   
    30   24   30 1   
    31   24   31 1   
    32   25   32 1   
    33   25   33 1   
    34   25   34 1   
    35   26   35 1   
    36   26   36 1   
    37   26   37 1   
    38   38   39 1   
    39   38   46 1   
    40   39   40 1   
    41   39   42 1   
    42   39   47 1   
    43   40   41 2   
    44   40   50 1   
    45   42   43 1   
    46   42   48 1   
    47   42   49 1   
    48   43   44 1   
    49   43   45 1   
    50   50   51 1   
    51   50   54 1   
    52   51   52 1   
    53   51   55 1   
    54   51   56 1   
    55   52   53 2   
    56   52   57 1   
    57   57   58 1   
    58   57   65 1   
    59   58   59 1   
    60   58   61 1   
    61   58   66 1   
    62   59   60 2   
    63   59   69 1   
    64   61   62 1   
    65   61   67 1   
    66   61   68 1   
    67   62   63 1   
    68   62   64 1   
    69   69   70 1   
    70   69   73 1   
    71   70   71 1   
    72   70   74 1   
    73   70   75 1   
    74   71   72 2   
    75   71   76 1   
    76   76   77 1   
    77   76   85 1   
    78   77   78 1   
    79   77   80 1   
    80   77   86 1   
    81   78   79 2   
    82   78   93 1   
    83   80   81 1   
    84   80   87 1   
    85   80   88 1   
    86   81   82 1   
    87   81   89 1   
    88   81   90 1   
    89   82   83 1   
    90   82   84 2   
    91   83   91 1   
    92   83   92 1   
    93   93   94 1   
    94   93  100 1   
    95   94   95 1   
    96   94   97 1   
    97   94  101 1   
    98   95   96 2   
    99   95  109 1   
   100   97   98 1   
   101   97   99 1   
   102   97  102 1   
   103   98  103 1   
   104   98  104 1   
   105   98  105 1   
   106   99  106 1   
   107   99  107 1   
   108   99  108 1   
   109  109  110 1   
   110  109  117 1   
   111  110  111 1   
   112  110  113 1   
   113  110  118 1   
   114  111  112 2   
   115  111  123 1   
   116  113  114 1   
   117  113  119 1   
   118  113  120 1   
   119  114  115 1   
   120  114  116 2   
   121  115  121 1   
   122  115  122 1   
   123  123  124 1   
   124  123  135 1   
   125  124  125 1   
   126  124  127 1   
   127  124  136 1   
   128  125  126 2   
   129  125  144 1   
   130  127  128 1   
   131  127  137 1   
   132  127  138 1   
   133  128  129 ar  
   134  128  130 ar  
   135  129  131 ar  
   136  129  139 1   
   137  130  132 ar  
   138  130  140 1   
   139  131  133 ar  
   140  131  141 1   
   141  132  133 ar  
   142  132  142 1   
   143  133  134 1   
   144  134  143 1   
   145  144  145 1   
   146  144  153 1   
   147  145  146 1   
   148  145  148 1   
   149  145  154 1   
   150  146  147 2   
   151  146  159 1   
   152  148  149 1   
   153  148  155 1   
   154  148  156 1   
   155  149  150 1   
   156  149  157 1   
   157  149  158 1   
   158  150  151 1   
   159  150  152 1   
   160  159  160 1   
   161  159  168 1   
   162  160  161 1   
   163  160  163 1   
   164  160  169 1   
   165  161  162 2   
   166  161  174 1   
   167  163  164 1   
   168  163  170 1   
   169  163  171 1   
   170  164  165 1   
   171  164  172 1   
   172  164  173 1   
   173  165  166 1   
   174  165  167 1   
   175  174  175 1   
   176  174  179 1   
   177  175  176 1   
   178  175  177 1   
   179  175  178 1   
   180  181  182 1   
   181  181  183 1   
   182  184  185 1   
   183  184  186 1   
   184  187  188 1   
   185  187  189 1   
   186  190  191 1   
   187  190  192 1   
   188  193  194 1   
   189  193  195 1   
@<TRIPOS>SUBSTRUCTURE
     1 MOL         1 TEMP              0 ****  ****    0 ROOT
