@<TRIPOS>MOLECULE
MOL
  189   185     1     0     0
SMALL
resp


@<TRIPOS>ATOM
      1 C1          4.4610    3.1230   -4.3050 c3        1 MOL     -0.425270
      2 C2          5.2430    2.7770   -3.0420 c         1 MOL      0.797301
      3 O1          4.6690    2.6730   -1.9430 o         1 MOL     -0.674858
      4 H1          4.9360    2.6530   -5.1670 hc        1 MOL      0.108991
      5 H2          3.4390    2.7600   -4.2120 hc        1 MOL      0.108991
      6 H3          4.4520    4.2050   -4.4430 hc        1 MOL      0.108991
      7 N1          6.5030    2.3460   -3.2270 n         1 MOL     -0.669311
      8 C3          7.2670    1.4510   -2.3210 c3        1 MOL      0.349932
      9 C4          6.4750    0.2320   -1.7750 c         1 MOL      0.217468
     10 O2          5.9190    0.2810   -0.6560 o         1 MOL     -0.444408
     11 C5          8.0340    2.2220   -1.1900 c3        1 MOL     -0.332526
     12 C6          7.3540    3.4180   -0.5050 c         1 MOL      0.812038
     13 O3          6.5440    3.1950    0.3910 o         1 MOL     -0.747848
     14 O4          7.6540    4.6070   -0.8730 o         1 MOL     -0.747848
     15 H4          6.9700    2.4910   -4.1020 hn        1 MOL      0.327665
     16 H5          7.9790    0.9980   -3.0100 h1        1 MOL      0.005586
     17 H6          8.9700    2.5830   -1.6150 hc        1 MOL      0.079717
     18 H7          8.2170    1.5200   -0.3770 hc        1 MOL      0.079717
     19 N2          6.3830   -0.7540   -2.6540 n         1 MOL     -0.406406
     20 C7          5.7020   -1.9660   -2.5510 c3        1 MOL      0.036075
     21 C8          6.3690   -2.9340   -1.4510 c         1 MOL      0.439669
     22 O5          6.6030   -4.0800   -1.7210 o         1 MOL     -0.552342
     23 C9          4.2230   -1.7080   -2.3690 c3        1 MOL      0.299695
     24 C10         3.4500   -3.0570   -2.3140 c3        1 MOL     -0.336169
     25 C11         3.6510   -0.6620   -3.3140 c3        1 MOL      0.057377
     26 C12         3.5280   -3.9550   -3.5690 c3        1 MOL     -0.210874
     27 H8          6.7620   -0.4920   -3.5470 hn        1 MOL      0.274971
     28 H9          5.7610   -2.4110   -3.5330 h1        1 MOL      0.070527
     29 H10         4.1180   -1.3550   -1.3440 hc        1 MOL     -0.131436
     30 H11         2.3790   -2.8900   -2.1810 hc        1 MOL      0.162350
     31 H12         3.8180   -3.5980   -1.4420 hc        1 MOL      0.162350
     32 H13         3.6520   -1.0550   -4.3270 hc        1 MOL     -0.032938
     33 H14         2.6510   -0.3890   -2.9670 hc        1 MOL     -0.032938
     34 H15         4.2100    0.2780   -3.4110 hc        1 MOL     -0.032938
     35 H16         2.9390   -3.5410   -4.3920 hc        1 MOL      0.043818
     36 H17         4.5160   -4.1040   -4.0010 hc        1 MOL      0.043818
     37 H18         2.9940   -4.8820   -3.3220 hc        1 MOL      0.043818
     38 N3          6.8740   -2.4120   -0.3250 n         1 MOL     -0.264036
     39 C13         7.4810   -3.3010    0.7060 c3        1 MOL      0.051084
     40 C14         6.5460   -4.3010    1.3970 c         1 MOL      0.557965
     41 O6          6.9680   -5.4190    1.6920 o         1 MOL     -0.611536
     42 C15         8.2200   -2.4130    1.6730 c3        1 MOL     -0.196500
     43 C16         9.3920   -1.5890    1.0440 c         1 MOL      0.733693
     44 O7          9.8160   -1.8000   -0.1030 o         1 MOL     -0.743969
     45 O8          9.9390   -0.7140    1.7010 o         1 MOL     -0.743969
     46 H19         6.5470   -1.4830   -0.0880 hn        1 MOL      0.306027
     47 H20         8.2490   -3.9190    0.2370 h1        1 MOL      0.063548
     48 H21         8.6890   -2.8400    2.5610 hc        1 MOL      0.045145
     49 H22         7.5370   -1.6330    2.0240 hc        1 MOL      0.045145
     50 N4          5.3060   -4.0870    1.7560 n         1 MOL     -0.470798
     51 C17         4.4990   -2.8550    1.8730 c3        1 MOL      0.110484
     52 C18         4.6520   -2.1240    3.1820 c         1 MOL      0.457187
     53 O9          5.7310   -2.0140    3.7120 o         1 MOL     -0.521734
     54 H23         4.9510   -4.9440    2.1650 hn        1 MOL      0.271184
     55 H24         3.4630   -3.1190    1.6550 h1        1 MOL      0.012306
     56 H25         4.6800   -2.1330    1.0760 h1        1 MOL      0.012306
     57 N5          3.6070   -1.5240    3.7340 n         1 MOL     -0.346245
     58 C19         2.2580   -1.3130    3.3530 c3        1 MOL      0.069852
     59 C20         2.0910   -0.5080    2.0600 c         1 MOL      0.264640
     60 O10         3.0610    0.1000    1.6260 o         1 MOL     -0.393534
     61 C21         1.5820   -0.6190    4.5750 c3        1 MOL     -0.332329
     62 C22         2.3800    0.7540    4.8830 c         1 MOL      0.697196
     63 O11         1.8490    1.8180    4.4580 o         1 MOL     -0.658074
     64 O12         3.5050    0.7400    5.4290 o         1 MOL     -0.658074
     65 H26         3.8540   -1.1440    4.6370 hn        1 MOL      0.252917
     66 H27         1.7720   -2.2850    3.2940 h1        1 MOL      0.025125
     67 H28         1.5440   -1.2650    5.4450 hc        1 MOL      0.086881
     68 H29         0.5190   -0.4520    4.4090 hc        1 MOL      0.086881
     69 N6          0.9710   -0.4800    1.3640 n         1 MOL     -0.092759
     70 C23        -0.3750   -1.0060    1.6860 c3        1 MOL      0.101368
     71 C24        -0.4920   -2.4080    1.0770 c         1 MOL      0.585239
     72 O13         0.3650   -2.9010    0.3160 o         1 MOL     -0.579149
     73 H30         0.9940    0.1460    0.5730 hn        1 MOL      0.101057
     74 H31        -1.0590   -0.3990    1.1000 h1        1 MOL     -0.006235
     75 H32        -0.6390   -1.1010    2.7400 h1        1 MOL     -0.006235
     76 N7         -1.6370   -3.0010    1.3060 n         1 MOL     -0.415708
     77 C25        -2.0250   -4.3990    0.9070 c3        1 MOL     -0.050911
     78 C26        -2.6290   -4.5250   -0.4880 c         1 MOL      0.256291
     79 O14        -2.6280   -5.6260   -1.0210 o         1 MOL     -0.495869
     80 C27        -2.8590   -5.0850    2.0070 c3        1 MOL      0.088342
     81 C28        -4.0100   -4.2830    2.5670 c3        1 MOL     -0.145241
     82 C29        -5.1660   -4.1230    1.5400 c         1 MOL      0.482629
     83 N8         -5.5930   -5.1910    0.9680 n         1 MOL     -0.564473
     84 O15        -5.4520   -3.0090    1.1270 o         1 MOL     -0.522321
     85 H33        -2.3630   -2.4790    1.7670 hn        1 MOL      0.247720
     86 H34        -1.1260   -5.0150    0.9740 h1        1 MOL      0.155895
     87 H35        -2.2110   -5.3710    2.8420 hc        1 MOL      0.002796
     88 H36        -3.2410   -6.0370    1.6320 hc        1 MOL      0.002796
     89 H37        -3.6410   -3.3210    2.9390 hc        1 MOL      0.048754
     90 H38        -4.3550   -4.8760    3.4110 hc        1 MOL      0.048754
     91 H39        -5.3290   -6.0850    1.3430 hn        1 MOL      0.320913
     92 H40        -6.4180   -5.1160    0.3860 hn        1 MOL      0.320913
     93 N9         -3.0990   -3.4270   -1.0190 n         1 MOL     -0.120987
     94 C30        -3.4490   -3.3680   -2.4660 c3        1 MOL     -0.045100
     95 C31        -4.8290   -2.8770   -2.8000 c         1 MOL      0.407439
     96 O16        -5.1930   -2.8310   -3.9830 o         1 MOL     -0.556483
     97 C32        -2.3990   -2.4950   -3.2150 c3        1 MOL      0.106973
     98 C33        -1.0220   -3.2060   -3.1780 c3        1 MOL     -0.179424
     99 C34        -2.3020   -1.0370   -2.6700 c3        1 MOL     -0.179424
    100 H41        -3.0000   -2.5760   -0.4880 hn        1 MOL      0.248622
    101 H42        -3.4510   -4.3520   -2.9330 h1        1 MOL      0.111464
    102 H43        -2.7100   -2.3580   -4.2470 hc        1 MOL      0.026136
    103 H44        -0.7620   -3.5630   -2.1750 hc        1 MOL      0.045591
    104 H45        -1.0080   -4.0790   -3.8330 hc        1 MOL      0.045591
    105 H46        -0.1840   -2.5450   -3.4050 hc        1 MOL      0.045591
    106 H47        -3.2240   -0.5170   -2.9130 hc        1 MOL      0.045591
    107 H48        -2.2000   -1.0590   -1.5780 hc        1 MOL      0.045591
    108 H49        -1.4420   -0.4580   -2.9940 hc        1 MOL      0.045591
    109 N10        -5.5650   -2.2830   -1.8280 n         1 MOL     -0.201222
    110 C35        -6.8680   -1.5820   -2.1160 c3        1 MOL      0.023288
    111 C36        -6.9960   -0.0940   -1.6670 c         1 MOL      0.592867
    112 O17        -7.9100    0.5740   -2.0400 o         1 MOL     -0.534019
    113 C37        -7.9680   -2.3920   -1.4830 c3        1 MOL     -0.410681
    114 C38        -8.0110   -3.9330   -1.7020 c         1 MOL      0.648811
    115 N11        -7.8560   -4.4270   -2.8870 n         1 MOL     -0.744090
    116 O18        -7.9600   -4.6980   -0.7210 o         1 MOL     -0.598296
    117 H50        -5.3530   -2.3650   -0.8440 hn        1 MOL      0.196394
    118 H51        -7.0520   -1.5010   -3.1910 h1        1 MOL      0.088434
    119 H52        -8.8660   -2.1150   -2.0210 hc        1 MOL      0.150552
    120 H53        -8.1850   -2.2480   -0.4230 hc        1 MOL      0.150552
    121 H54        -7.6570   -3.8150   -3.6580 hn        1 MOL      0.367426
    122 H55        -7.8210   -5.4300   -3.0010 hn        1 MOL      0.367426
    123 N12        -5.9880    0.4200   -0.8850 n         1 MOL     -0.555139
    124 C39        -5.9980    1.7390   -0.0980 c3        1 MOL      0.285939
    125 C40        -4.6710    2.5220    0.0150 c         1 MOL      0.430002
    126 O19        -3.5680    1.9340    0.1420 o         1 MOL     -0.475158
    127 C41        -6.5210    1.5120    1.3310 c3        1 MOL     -0.083858
    128 C42        -7.9400    1.0770    1.4900 ca        1 MOL      0.044274
    129 C43        -8.2960   -0.2680    1.8560 ca        1 MOL     -0.099366
    130 C44        -9.0400    2.0110    1.4980 ca        1 MOL     -0.099366
    131 C45        -9.6470   -0.6820    1.9820 ca        1 MOL     -0.380467
    132 C46       -10.4060    1.6110    1.6490 ca        1 MOL     -0.380467
    133 C47       -10.7060    0.2290    1.9950 ca        1 MOL      0.462855
    134 O20       -11.9810   -0.1000    2.2370 oh        1 MOL     -0.536389
    135 H56        -5.2110   -0.2190   -0.7380 hn        1 MOL      0.223542
    136 H57        -6.7060    2.4200   -0.5720 h1        1 MOL     -0.011421
    137 H58        -6.4610    2.4650    1.8410 hc        1 MOL      0.069505
    138 H59        -5.8580    0.7370    1.7270 hc        1 MOL      0.069505
    139 H60        -7.5660   -0.9970    2.1660 ha        1 MOL      0.126819
    140 H61        -8.9250    3.0240    1.1350 ha        1 MOL      0.126819
    141 H62        -9.7960   -1.7050    2.3210 ha        1 MOL      0.160057
    142 H63       -11.1590    2.3780    1.5050 ha        1 MOL      0.160057
    143 H64       -12.6010    0.6340    2.2830 ho        1 MOL      0.381214
    144 N13        -4.6790    3.8540    0.0170 n         1 MOL     -0.557952
    145 C48        -3.6270    4.8430    0.4320 c3        1 MOL      0.041599
    146 C49        -2.3320    4.8230   -0.4570 c         1 MOL      0.291623
    147 O21        -1.5250    5.7950   -0.3200 o         1 MOL     -0.497748
    148 C50        -3.2750    4.6760    1.9190 c3        1 MOL      0.131403
    149 C51        -4.4850    4.8700    2.8090 c3        1 MOL     -0.400446
    150 C52        -3.9720    4.9900    4.2700 c         1 MOL      0.751773
    151 O22        -3.9190    3.9640    4.9510 o         1 MOL     -0.729125
    152 O23        -3.6360    6.0890    4.7610 o         1 MOL     -0.729125
    153 H65        -5.5790    4.2690   -0.1500 hn        1 MOL      0.316102
    154 H66        -4.0390    5.8390    0.2510 h1        1 MOL      0.092778
    155 H67        -2.5860    5.4390    2.2840 hc        1 MOL      0.059754
    156 H68        -2.8260    3.6980    2.1080 hc        1 MOL      0.059754
    157 H69        -5.1500    4.0320    2.6250 hc        1 MOL      0.040553
    158 H70        -5.0380    5.7670    2.5150 hc        1 MOL      0.040553
    159 N14        -2.1930    3.9450   -1.4600 n         1 MOL     -0.207550
    160 C53        -1.0480    3.8960   -2.3770 c3        1 MOL     -0.091588
    161 C54        -1.3680    4.5180   -3.8100 c         1 MOL      0.440811
    162 O24        -0.4540    4.7460   -4.5710 o         1 MOL     -0.513159
    163 C55        -0.5430    2.4470   -2.3980 c3        1 MOL     -0.132673
    164 C56        -0.2130    1.7870   -1.0390 c3        1 MOL      0.357310
    165 C57         1.1460    2.1950   -0.5080 c         1 MOL      0.533672
    166 O25         2.1630    1.5730   -0.7960 o         1 MOL     -0.649344
    167 O26         1.1620    2.9460    0.4690 o         1 MOL     -0.649344
    168 H71        -2.7840    3.1270   -1.3780 hn        1 MOL      0.205258
    169 H72        -0.2190    4.4890   -1.9710 h1        1 MOL      0.159046
    170 H73         0.3340    2.3180   -3.0400 hc        1 MOL      0.023138
    171 H74        -1.3760    1.7810   -2.6260 hc        1 MOL      0.023138
    172 H75        -0.0890    0.7240   -1.2690 hc        1 MOL     -0.079268
    173 H76        -0.9540    2.0950   -0.3080 hc        1 MOL     -0.079268
    174 N15        -2.6260    4.8240   -4.0740 n         1 MOL     -0.196700
    175 C58        -3.0660    5.4320   -5.3500 c3        1 MOL     -0.272186
    176 H77        -2.5360    4.9610   -6.1780 h1        1 MOL      0.107233
    177 H78        -4.1380    5.2820   -5.4730 h1        1 MOL      0.107233
    178 H79        -2.8460    6.4990   -5.3390 h1        1 MOL      0.107233
    179 H80        -3.3770    4.6720   -3.4170 hn        1 MOL      0.199375
    180 Ca1         4.2390    2.1690    0.6320 Ca        1 MOL      1.739406
    181 O27         6.0040    0.9240    2.3460 oh        1 MOL     -0.876167
    182 H81         5.9350    0.2500    3.0180 ho        1 MOL      0.421662
    183 H82         6.8920    1.2570    2.4270 ho        1 MOL      0.421662
    184 O28         3.7420    4.7760    0.5540 oh        1 MOL     -0.876167
    185 H83         4.1830    5.1580   -0.1980 ho        1 MOL      0.421662
    186 H84         2.9440    5.3000    0.6530 ho        1 MOL      0.421662
    187 O29         3.5900    3.0140    2.9940 oh        1 MOL     -0.876167
    188 H85         3.6330    3.8600    3.4290 ho        1 MOL      0.421662
    189 H86         2.8670    2.5540    3.4220 ho        1 MOL      0.421662
@<TRIPOS>BOND
     1    1    2 1   
     2    1    4 1   
     3    1    5 1   
     4    1    6 1   
     5    2    3 2   
     6    2    7 1   
     7    7    8 1   
     8    7   15 1   
     9    8    9 1   
    10    8   11 1   
    11    8   16 1   
    12    9   10 2   
    13    9   19 1   
    14   11   12 1   
    15   11   17 1   
    16   11   18 1   
    17   12   13 1   
    18   12   14 1   
    19   19   20 1   
    20   19   27 1   
    21   20   21 1   
    22   20   23 1   
    23   20   28 1   
    24   21   22 2   
    25   21   38 1   
    26   23   24 1   
    27   23   25 1   
    28   23   29 1   
    29   24   26 1   
    30   24   30 1   
    31   24   31 1   
    32   25   32 1   
    33   25   33 1   
    34   25   34 1   
    35   26   35 1   
    36   26   36 1   
    37   26   37 1   
    38   38   39 1   
    39   38   46 1   
    40   39   40 1   
    41   39   42 1   
    42   39   47 1   
    43   40   41 2   
    44   40   50 1   
    45   42   43 1   
    46   42   48 1   
    47   42   49 1   
    48   43   44 1   
    49   43   45 1   
    50   50   51 1   
    51   50   54 1   
    52   51   52 1   
    53   51   55 1   
    54   51   56 1   
    55   52   53 2   
    56   52   57 1   
    57   57   58 1   
    58   57   65 1   
    59   58   59 1   
    60   58   61 1   
    61   58   66 1   
    62   59   60 2   
    63   59   69 1   
    64   61   62 1   
    65   61   67 1   
    66   61   68 1   
    67   62   63 1   
    68   62   64 1   
    69   69   70 1   
    70   69   73 1   
    71   70   71 1   
    72   70   74 1   
    73   70   75 1   
    74   71   72 2   
    75   71   76 1   
    76   76   77 1   
    77   76   85 1   
    78   77   78 1   
    79   77   80 1   
    80   77   86 1   
    81   78   79 2   
    82   78   93 1   
    83   80   81 1   
    84   80   87 1   
    85   80   88 1   
    86   81   82 1   
    87   81   89 1   
    88   81   90 1   
    89   82   83 1   
    90   82   84 2   
    91   83   91 1   
    92   83   92 1   
    93   93   94 1   
    94   93  100 1   
    95   94   95 1   
    96   94   97 1   
    97   94  101 1   
    98   95   96 2   
    99   95  109 1   
   100   97   98 1   
   101   97   99 1   
   102   97  102 1   
   103   98  103 1   
   104   98  104 1   
   105   98  105 1   
   106   99  106 1   
   107   99  107 1   
   108   99  108 1   
   109  109  110 1   
   110  109  117 1   
   111  110  111 1   
   112  110  113 1   
   113  110  118 1   
   114  111  112 2   
   115  111  123 1   
   116  113  114 1   
   117  113  119 1   
   118  113  120 1   
   119  114  115 1   
   120  114  116 2   
   121  115  121 1   
   122  115  122 1   
   123  123  124 1   
   124  123  135 1   
   125  124  125 1   
   126  124  127 1   
   127  124  136 1   
   128  125  126 2   
   129  125  144 1   
   130  127  128 1   
   131  127  137 1   
   132  127  138 1   
   133  128  129 ar  
   134  128  130 ar  
   135  129  131 ar  
   136  129  139 1   
   137  130  132 ar  
   138  130  140 1   
   139  131  133 ar  
   140  131  141 1   
   141  132  133 ar  
   142  132  142 1   
   143  133  134 1   
   144  134  143 1   
   145  144  145 1   
   146  144  153 1   
   147  145  146 1   
   148  145  148 1   
   149  145  154 1   
   150  146  147 2   
   151  146  159 1   
   152  148  149 1   
   153  148  155 1   
   154  148  156 1   
   155  149  150 1   
   156  149  157 1   
   157  149  158 1   
   158  150  151 1   
   159  150  152 1   
   160  159  160 1   
   161  159  168 1   
   162  160  161 1   
   163  160  163 1   
   164  160  169 1   
   165  161  162 2   
   166  161  174 1   
   167  163  164 1   
   168  163  170 1   
   169  163  171 1   
   170  164  165 1   
   171  164  172 1   
   172  164  173 1   
   173  165  166 1   
   174  165  167 1   
   175  174  175 1   
   176  174  179 1   
   177  175  176 1   
   178  175  177 1   
   179  175  178 1   
   180  181  182 1   
   181  181  183 1   
   182  184  185 1   
   183  184  186 1   
   184  187  188 1   
   185  187  189 1   
@<TRIPOS>SUBSTRUCTURE
     1 MOL         1 TEMP              0 ****  ****    0 ROOT
