@<TRIPOS>MOLECULE
MOL
  192   187     1     0     0
SMALL
resp


@<TRIPOS>ATOM
      1 C1          9.7590    0.7890    2.0130 c3        1 MOL     -0.358431
      2 C2          8.5720    0.1940    1.2330 c         1 MOL      0.801992
      3 O1          7.5640   -0.0690    1.8640 o         1 MOL     -0.656947
      4 H1         10.6600    0.2170    1.7920 hc        1 MOL      0.087374
      5 H2          9.9060    1.8270    1.7150 hc        1 MOL      0.087374
      6 H3          9.5510    0.7430    3.0820 hc        1 MOL      0.087374
      7 N1          8.7370   -0.0630   -0.0470 n         1 MOL     -0.726610
      8 C3          7.6680   -0.3750   -1.0060 c3        1 MOL      0.198314
      9 C4          7.1400   -1.8550   -0.9510 c         1 MOL      0.400562
     10 O2          7.1270   -2.5880   -1.9490 o         1 MOL     -0.474426
     11 C5          8.0550   -0.0280   -2.5140 c3        1 MOL     -0.106770
     12 C6          8.6980    1.3450   -2.6120 c         1 MOL      0.675494
     13 O3          9.8680    1.3770   -3.0150 o         1 MOL     -0.674069
     14 O4          8.0980    2.3490   -2.1070 o         1 MOL     -0.674069
     15 H4          9.6170    0.2780   -0.4100 hn        1 MOL      0.374255
     16 H5          6.8650    0.3000   -0.7140 h1        1 MOL      0.070597
     17 H6          7.1630   -0.0370   -3.1450 hc        1 MOL      0.026211
     18 H7          8.7830   -0.6840   -2.9660 hc        1 MOL      0.026211
     19 N2          6.6750   -2.2570    0.2410 n         1 MOL     -0.293518
     20 C7          6.1680   -3.6350    0.3710 c3        1 MOL      0.053877
     21 C8          4.7850   -3.8420   -0.3010 c         1 MOL      0.486405
     22 O5          4.6460   -4.8620   -1.0170 o         1 MOL     -0.560651
     23 C9          6.2160   -4.1810    1.8050 c3        1 MOL     -0.237836
     24 C10         7.5740   -3.9610    2.5430 c3        1 MOL      0.268575
     25 C11         8.7110   -4.9770    2.2010 c3        1 MOL     -0.170936
     26 C12         9.9970   -4.6630    2.9360 c3        1 MOL      0.058833
     27 N3          9.7670   -4.8590    4.4180 n4        1 MOL     -0.393104
     28 H8          6.7110   -1.6530    1.0430 hn        1 MOL      0.284589
     29 H9          6.8110   -4.3020   -0.1940 h1        1 MOL      0.069365
     30 H10         6.1080   -5.2630    1.8750 hc        1 MOL      0.064567
     31 H11         5.4250   -3.7810    2.4360 hc        1 MOL      0.064567
     32 H12         7.4750   -4.1480    3.6130 hc        1 MOL     -0.083385
     33 H13         7.9330   -2.9410    2.4060 hc        1 MOL     -0.083385
     34 H14         8.9350   -5.0130    1.1290 hc        1 MOL      0.082077
     35 H15         8.3530   -5.9740    2.4680 hc        1 MOL      0.082077
     36 H16        10.3270   -3.6470    2.7210 hx        1 MOL      0.088461
     37 H17        10.8420   -5.2390    2.5590 hx        1 MOL      0.088461
     38 H18        10.6280   -4.6320    4.8950 hn        1 MOL      0.307235
     39 H19         9.0300   -4.2950    4.8230 hn        1 MOL      0.307235
     40 H20         9.3960   -5.7790    4.6100 hn        1 MOL      0.307235
     41 N4          3.7730   -3.0170   -0.1750 n         1 MOL     -0.380118
     42 C13         3.7110   -1.8510    0.7510 c3        1 MOL      0.087381
     43 C14         3.7680   -0.5900   -0.1940 c         1 MOL      0.201504
     44 O6          3.7180   -0.6890   -1.4400 o         1 MOL     -0.358469
     45 C15         2.4470   -1.8470    1.5070 c3        1 MOL     -0.210479
     46 C16         1.1210   -2.1130    0.8060 c         1 MOL      0.676689
     47 O7          0.9690   -1.4690   -0.2300 o         1 MOL     -0.646859
     48 O8          0.2810   -2.8810    1.3260 o         1 MOL     -0.646859
     49 H21         2.8720   -3.2210   -0.5900 hn        1 MOL      0.347205
     50 H22         4.5430   -1.8270    1.4520 h1        1 MOL      0.067756
     51 H23         2.3610   -0.8980    2.0350 hc        1 MOL      0.044729
     52 H24         2.5360   -2.6110    2.2810 hc        1 MOL      0.044729
     53 N5          4.0040    0.5110    0.4190 n         1 MOL     -0.323621
     54 C17         4.2860    1.7870   -0.2530 c3        1 MOL      0.122531
     55 C18         2.9650    2.3940   -0.7740 c         1 MOL      0.389927
     56 O9          1.8470    1.8520   -0.6790 o         1 MOL     -0.558092
     57 H25         4.0900    0.5010    1.4290 hn        1 MOL      0.257213
     58 H26         5.0590    1.7450   -1.0230 h1        1 MOL      0.037618
     59 H27         4.7690    2.4480    0.4610 h1        1 MOL      0.037618
     60 N6          3.0170    3.5520   -1.4800 n         1 MOL     -0.224791
     61 C19         1.9560    4.3430   -1.9660 c3        1 MOL      0.109794
     62 C20         2.2520    5.8930   -1.9990 c         1 MOL      0.436597
     63 O10         3.4330    6.2880   -1.9320 o         1 MOL     -0.516621
     64 C21         1.7300    4.0050   -3.4380 c3        1 MOL     -0.230862
     65 C22         1.0210    2.7350   -3.6780 c         1 MOL      0.644156
     66 O11        -0.1080    2.6010   -3.1400 o         1 MOL     -0.668687
     67 O12         1.6880    1.8420   -4.2420 o         1 MOL     -0.668687
     68 H28         3.9450    3.9370   -1.5760 hn        1 MOL      0.225706
     69 H29         1.0690    4.1810   -1.3460 h1        1 MOL      0.212977
     70 H30         2.7270    4.0670   -3.8620 hc        1 MOL      0.066589
     71 H31         1.0720    4.7410   -3.9080 hc        1 MOL      0.066589
     72 N7          1.2430    6.7670   -2.0640 n         1 MOL     -0.499666
     73 C23        -0.2100    6.5020   -2.1790 c3        1 MOL      0.129437
     74 C24        -0.8550    6.1470   -0.8970 c         1 MOL      0.522633
     75 O13        -0.3800    6.5440    0.1640 o         1 MOL     -0.490504
     76 H32         1.5390    7.7350   -2.0250 hn        1 MOL      0.321006
     77 H33        -0.3080    5.6440   -2.8400 h1        1 MOL      0.025989
     78 H34        -0.7090    7.3250   -2.6940 h1        1 MOL      0.025989
     79 N8         -1.9680    5.4360   -1.0290 n         1 MOL     -0.600259
     80 C25        -2.6260    4.7920    0.1100 c3        1 MOL      0.275919
     81 C26        -1.6710    3.6910    0.6360 c         1 MOL      0.185104
     82 O14        -1.0900    2.9090   -0.1830 o         1 MOL     -0.608164
     83 C27        -3.9100    4.0580   -0.2850 c3        1 MOL      0.299252
     84 C28        -5.1590    4.8960   -0.4130 c3        1 MOL     -0.264389
     85 O15        -4.2700    3.1270    0.7120 oh        1 MOL     -0.552080
     86 H35        -2.2730    5.2030   -1.9670 hn        1 MOL      0.303666
     87 H36        -2.8720    5.5420    0.8550 h1        1 MOL      0.034721
     88 H37        -3.7340    3.5140   -1.2060 h1        1 MOL      0.099963
     89 H38        -4.5380    3.6310    1.4780 ho        1 MOL      0.356058
     90 H39        -5.0390    5.5670   -1.2640 hc        1 MOL      0.065063
     91 H40        -6.0010    4.2390   -0.5830 hc        1 MOL      0.065063
     92 H41        -5.3160    5.5360    0.4520 hc        1 MOL      0.065063
     93 N9         -1.5310    3.7110    1.9820 n         1 MOL     -0.440959
     94 C29        -0.6510    2.7090    2.6460 c3        1 MOL      0.130541
     95 C30        -1.1230    1.2820    2.2600 c         1 MOL      0.253046
     96 O16        -0.6520    0.6660    1.3100 o         1 MOL     -0.550851
     97 C31         0.8600    2.8950    2.4310 c3        1 MOL      0.141671
     98 C32         1.2420    4.4330    2.5390 c3        1 MOL     -0.014216
     99 C33         1.7240    1.8970    3.2400 c3        1 MOL     -0.569499
    100 C34         2.6800    4.6100    2.0130 c3        1 MOL     -0.078424
    101 H42        -2.1140    4.2890    2.5620 hn        1 MOL      0.306084
    102 H43        -0.8100    2.8950    3.7060 h1        1 MOL      0.031481
    103 H44         0.9840    2.8350    1.3530 hc        1 MOL      0.133135
    104 H45         1.2920    4.7080    3.5940 hc        1 MOL     -0.000138
    105 H46         0.5780    5.1570    2.0650 hc        1 MOL     -0.000138
    106 H47         1.6090    2.1620    4.2890 hc        1 MOL      0.154466
    107 H48         1.4600    0.8340    3.1740 hc        1 MOL      0.154466
    108 H49         2.7700    1.9450    2.9520 hc        1 MOL      0.154466
    109 H50         3.1400    5.5970    2.1250 hc        1 MOL      0.014382
    110 H51         3.3440    3.8860    2.4860 hc        1 MOL      0.014382
    111 H52         2.7110    4.4280    0.9320 hc        1 MOL      0.014382
    112 N10        -2.0470    0.7170    3.0200 n         1 MOL     -0.085033
    113 C35        -2.4470   -0.7560    2.9930 c3        1 MOL     -0.218484
    114 C36        -3.9270   -0.9070    3.0110 c         1 MOL      0.510977
    115 O17        -4.4830   -2.0260    3.0960 o         1 MOL     -0.551759
    116 C37        -1.7720   -1.5050    4.1950 c3        1 MOL      0.480148
    117 C38        -1.8560   -0.8870    5.5490 c3        1 MOL     -0.121753
    118 O18        -0.3610   -1.5730    3.9210 oh        1 MOL     -0.613963
    119 H53        -2.4060    1.2440    3.8080 hn        1 MOL      0.189441
    120 H54        -2.1100   -1.3150    2.1200 h1        1 MOL      0.147558
    121 H55        -2.1970   -2.5100    4.2580 h1        1 MOL     -0.010849
    122 H56        -0.2200   -2.0190    3.0850 ho        1 MOL      0.323858
    123 H57        -1.3940    0.0910    5.5950 hc        1 MOL      0.012281
    124 H58        -2.9370   -0.7550    5.6500 hc        1 MOL      0.012281
    125 H59        -1.4850   -1.5630    6.3220 hc        1 MOL      0.012281
    126 N11        -4.6780    0.1900    2.8700 n         1 MOL     -0.223497
    127 C39        -6.2450    0.2440    2.8120 c3        1 MOL     -0.167873
    128 C40        -6.7000   -0.1450    1.3700 c         1 MOL      0.431797
    129 O19        -6.7730    0.7510    0.5050 o         1 MOL     -0.484770
    130 C41        -6.8430    1.6330    3.2540 c3        1 MOL      0.470788
    131 C42        -8.3730    1.7420    3.0700 c3        1 MOL     -0.537837
    132 O20        -6.4190    1.7080    4.5600 oh        1 MOL     -0.637428
    133 H60        -4.2940    1.1130    3.0120 hn        1 MOL      0.195356
    134 H61        -6.6000   -0.5060    3.5310 h1        1 MOL      0.105513
    135 H62        -6.2490    2.2920    2.6110 h1        1 MOL     -0.054466
    136 H63        -6.6690    2.5230    5.0080 ho        1 MOL      0.399736
    137 H64        -8.5920    2.5130    2.3340 hc        1 MOL      0.145778
    138 H65        -8.8990    0.8720    2.6950 hc        1 MOL      0.145778
    139 H66        -8.8410    1.9580    4.0320 hc        1 MOL      0.145778
    140 N12        -6.8870   -1.4310    1.2120 n         1 MOL     -0.314454
    141 C43        -6.8320   -2.2750   -0.0480 c3        1 MOL      0.019649
    142 C44        -5.5200   -2.0800   -0.7740 c         1 MOL      0.581397
    143 O21        -5.1800   -0.9270   -0.9240 o         1 MOL     -0.464065
    144 C45        -8.0760   -1.8590   -0.8390 c3        1 MOL     -0.240346
    145 C46        -9.3750   -2.2260   -0.0010 c3        1 MOL      0.087971
    146 C47       -10.6420   -1.9520   -0.9000 c3        1 MOL      0.116051
    147 C48       -11.8750   -2.3250   -0.0920 c3        1 MOL      0.042468
    148 N13       -13.0180   -2.4130   -1.0090 n4        1 MOL     -0.131996
    149 H67        -6.9060   -1.9170    2.0940 hn        1 MOL      0.228638
    150 H68        -6.9080   -3.3180    0.2460 h1        1 MOL      0.069667
    151 H69        -8.0630   -2.4440   -1.7590 hc        1 MOL      0.101224
    152 H70        -8.0490   -0.8280   -1.2030 hc        1 MOL      0.101224
    153 H71        -9.4940   -1.6250    0.8980 hc        1 MOL     -0.011553
    154 H72        -9.2770   -3.3070    0.0880 hc        1 MOL     -0.011553
    155 H73       -10.4750   -2.6100   -1.7560 hc        1 MOL     -0.010123
    156 H74       -10.6590   -0.9080   -1.2180 hc        1 MOL     -0.010123
    157 H75       -12.1620   -1.5460    0.6040 hx        1 MOL      0.051242
    158 H76       -11.6960   -3.2900    0.3930 hx        1 MOL      0.051242
    159 H77       -12.9150   -2.9590   -1.8580 hn        1 MOL      0.182319
    160 H78       -13.7990   -2.8390   -0.5430 hn        1 MOL      0.182319
    161 H79       -13.3020   -1.5230   -1.3930 hn        1 MOL      0.182319
    162 N14        -4.8930   -3.1500   -1.3110 n         1 MOL     -0.571595
    163 C49        -3.6440   -3.0190   -2.1300 c3        1 MOL      0.252805
    164 C50        -2.4020   -2.6110   -1.2460 c         1 MOL      0.395003
    165 O22        -1.5900   -1.7360   -1.6040 o         1 MOL     -0.561618
    166 C51        -3.3250   -4.3480   -2.9110 c3        1 MOL      0.095228
    167 C52        -4.1050   -4.4440   -4.2740 c3        1 MOL     -0.383209
    168 C53        -3.7420   -5.7830   -5.0180 c         1 MOL      0.706998
    169 O23        -2.7330   -5.9500   -5.7380 o         1 MOL     -0.621169
    170 O24        -4.4450   -6.7950   -4.7890 o         1 MOL     -0.621169
    171 H80        -5.2460   -4.0910   -1.2640 hn        1 MOL      0.320815
    172 H81        -3.7560   -2.2130   -2.8570 h1        1 MOL      0.040709
    173 H82        -3.7300   -5.1820   -2.3350 hc        1 MOL      0.041282
    174 H83        -2.2640   -4.4580   -3.1440 hc        1 MOL      0.041282
    175 H84        -3.6960   -3.6370   -4.8810 hc        1 MOL      0.060287
    176 H85        -5.1760   -4.3130   -4.1250 hc        1 MOL      0.060287
    177 N15        -2.0820   -3.4230   -0.1940 n         1 MOL     -0.348739
    178 C54        -2.5780   -4.7540    0.2060 c3        1 MOL     -0.010342
    179 H86        -1.9400   -5.1570    0.9920 h1        1 MOL      0.027266
    180 H87        -3.5990   -4.6660    0.5760 h1        1 MOL      0.027266
    181 H88        -2.5590   -5.4220   -0.6550 h1        1 MOL      0.027266
    182 H89        -1.3270   -3.0860    0.3820 hn        1 MOL      0.324786
    183 Ca1        -0.3060    0.5810   -1.3020 Ca        1 MOL      1.818813
    184 O25        -1.6020    0.1360   -3.8110 oh        1 MOL     -0.856494
    185 H90        -1.3210   -0.7370   -4.0790 ho        1 MOL      0.402598
    186 H91        -1.4740    0.6880   -4.5840 ho        1 MOL      0.402598
    187 O26         1.2780   -0.4970   -3.2260 oh        1 MOL     -0.856494
    188 H92         1.9550   -1.0420   -3.6350 ho        1 MOL      0.402598
    189 H93         1.3120    0.3250   -3.7060 ho        1 MOL      0.402598
    190 O27        -3.0590    0.6640   -0.6430 oh        1 MOL     -0.856494
    191 H94        -3.3530    1.4400   -0.1750 ho        1 MOL      0.402598
    192 H95        -3.8550    0.1480   -0.7800 ho        1 MOL      0.402598
@<TRIPOS>BOND
     1    1    2 1   
     2    1    4 1   
     3    1    5 1   
     4    1    6 1   
     5    2    3 2   
     6    2    7 1   
     7    7    8 1   
     8    7   15 1   
     9    8    9 1   
    10    8   11 1   
    11    8   16 1   
    12    9   10 2   
    13    9   19 1   
    14   11   12 1   
    15   11   17 1   
    16   11   18 1   
    17   12   13 1   
    18   12   14 1   
    19   19   20 1   
    20   19   28 1   
    21   20   21 1   
    22   20   23 1   
    23   20   29 1   
    24   21   22 2   
    25   21   41 1   
    26   23   24 1   
    27   23   30 1   
    28   23   31 1   
    29   24   25 1   
    30   24   32 1   
    31   24   33 1   
    32   25   26 1   
    33   25   34 1   
    34   25   35 1   
    35   26   27 1   
    36   26   36 1   
    37   26   37 1   
    38   27   38 1   
    39   27   39 1   
    40   27   40 1   
    41   41   42 1   
    42   41   49 1   
    43   42   43 1   
    44   42   45 1   
    45   42   50 1   
    46   43   44 2   
    47   43   53 1   
    48   45   46 1   
    49   45   51 1   
    50   45   52 1   
    51   46   47 1   
    52   46   48 1   
    53   53   54 1   
    54   53   57 1   
    55   54   55 1   
    56   54   58 1   
    57   54   59 1   
    58   55   56 2   
    59   55   60 1   
    60   60   61 1   
    61   60   68 1   
    62   61   62 1   
    63   61   64 1   
    64   61   69 1   
    65   62   63 2   
    66   62   72 1   
    67   64   65 1   
    68   64   70 1   
    69   64   71 1   
    70   65   66 1   
    71   65   67 1   
    72   72   73 1   
    73   72   76 1   
    74   73   74 1   
    75   73   77 1   
    76   73   78 1   
    77   74   75 2   
    78   74   79 1   
    79   79   80 1   
    80   79   86 1   
    81   80   81 1   
    82   80   83 1   
    83   80   87 1   
    84   81   82 2   
    85   81   93 1   
    86   83   84 1   
    87   83   85 1   
    88   83   88 1   
    89   84   90 1   
    90   84   91 1   
    91   84   92 1   
    92   85   89 1   
    93   93   94 1   
    94   93  101 1   
    95   94   95 1   
    96   94   97 1   
    97   94  102 1   
    98   95   96 2   
    99   95  112 1   
   100   97   98 1   
   101   97   99 1   
   102   97  103 1   
   103   98  100 1   
   104   98  104 1   
   105   98  105 1   
   106   99  106 1   
   107   99  107 1   
   108   99  108 1   
   109  100  109 1   
   110  100  110 1   
   111  100  111 1   
   112  112  113 1   
   113  112  119 1   
   114  113  114 1   
   115  113  116 1   
   116  113  120 1   
   117  114  115 2   
   118  114  126 1   
   119  116  117 1   
   120  116  118 1   
   121  116  121 1   
   122  117  123 1   
   123  117  124 1   
   124  117  125 1   
   125  118  122 1   
   126  126  127 1   
   127  126  133 1   
   128  127  128 1   
   129  127  130 1   
   130  127  134 1   
   131  128  129 2   
   132  128  140 1   
   133  130  131 1   
   134  130  132 1   
   135  130  135 1   
   136  131  137 1   
   137  131  138 1   
   138  131  139 1   
   139  132  136 1   
   140  140  141 1   
   141  140  149 1   
   142  141  142 1   
   143  141  144 1   
   144  141  150 1   
   145  142  143 2   
   146  142  162 1   
   147  144  145 1   
   148  144  151 1   
   149  144  152 1   
   150  145  146 1   
   151  145  153 1   
   152  145  154 1   
   153  146  147 1   
   154  146  155 1   
   155  146  156 1   
   156  147  148 1   
   157  147  157 1   
   158  147  158 1   
   159  148  159 1   
   160  148  160 1   
   161  148  161 1   
   162  162  163 1   
   163  162  171 1   
   164  163  164 1   
   165  163  166 1   
   166  163  172 1   
   167  164  165 2   
   168  164  177 1   
   169  166  167 1   
   170  166  173 1   
   171  166  174 1   
   172  167  168 1   
   173  167  175 1   
   174  167  176 1   
   175  168  169 1   
   176  168  170 1   
   177  177  178 1   
   178  177  182 1   
   179  178  179 1   
   180  178  180 1   
   181  178  181 1   
   182  184  185 1   
   183  184  186 1   
   184  187  188 1   
   185  187  189 1   
   186  190  191 1   
   187  190  192 1   
@<TRIPOS>SUBSTRUCTURE
     1 MOL         1 TEMP              0 ****  ****    0 ROOT
