@<TRIPOS>MOLECULE
MOL
  175   173     1     0     0
SMALL
resp


@<TRIPOS>ATOM
      1 C1         -6.3460    8.2430    1.8170 c3        1 MOL     -0.409623
      2 C2         -7.2570    7.6070    0.7400 c         1 MOL      0.639661
      3 O1         -7.4570    8.2060   -0.3190 o         1 MOL     -0.574226
      4 H1         -5.6430    7.4950    2.1850 hc        1 MOL      0.096749
      5 H2         -5.7940    9.0760    1.3820 hc        1 MOL      0.096749
      6 H3         -6.9570    8.6040    2.6450 hc        1 MOL      0.096749
      7 N1         -7.6110    6.3740    0.9890 n         1 MOL     -0.393156
      8 C3         -8.3800    5.4740    0.1340 c3        1 MOL     -0.039706
      9 C4         -7.5250    4.4090   -0.5970 c         1 MOL      0.515665
     10 O2         -7.9750    3.6700   -1.5180 o         1 MOL     -0.510037
     11 C5         -9.4160    4.6660    1.0330 c3        1 MOL     -0.116846
     12 C6        -10.5150    4.0240    0.1890 c         1 MOL      0.694750
     13 O3        -10.5660    2.7540    0.1320 o         1 MOL     -0.727351
     14 O4        -11.3710    4.7970   -0.3120 o         1 MOL     -0.727351
     15 H4         -7.4520    6.0650    1.9350 hn        1 MOL      0.240079
     16 H5         -8.8670    6.1690   -0.5580 h1        1 MOL      0.113490
     17 H6         -9.9990    5.2350    1.7620 hc        1 MOL      0.010340
     18 H7         -8.9410    3.8330    1.5540 hc        1 MOL      0.010340
     19 N2         -6.1900    4.2690   -0.3140 n         1 MOL     -0.484098
     20 C7         -5.2610    3.2970   -0.9550 c3        1 MOL      0.377039
     21 C8         -4.7310    2.2360    0.0930 c         1 MOL      0.346348
     22 O5         -4.2690    2.6760    1.1380 o         1 MOL     -0.542007
     23 C9         -4.0420    4.0480   -1.6510 c3        1 MOL     -0.303941
     24 H8         -5.7920    4.8000    0.4460 hn        1 MOL      0.251414
     25 H9         -5.8700    2.8040   -1.7070 h1        1 MOL     -0.004055
     26 H10        -3.4810    3.3980   -2.3200 hc        1 MOL      0.078232
     27 H11        -4.4110    4.8990   -2.2290 hc        1 MOL      0.078232
     28 H12        -3.4380    4.5490   -0.8960 hc        1 MOL      0.078232
     29 N3         -4.7620    0.9270   -0.1280 n         1 MOL     -0.109850
     30 C10        -5.3850    0.1540   -1.2180 c3        1 MOL     -0.149176
     31 C11        -5.8610   -1.2280   -0.8020 c         1 MOL      0.515070
     32 O6         -5.3940   -1.6340    0.2540 o         1 MOL     -0.539113
     33 C12        -4.4880    0.0690   -2.4970 c3        1 MOL     -0.054288
     34 C13        -2.9790   -0.2760   -2.2100 c         1 MOL      0.629423
     35 O7         -2.5580   -1.4780   -2.2430 o         1 MOL     -0.696799
     36 O8         -2.2970    0.6020   -1.7280 o         1 MOL     -0.696799
     37 H13        -4.3840    0.4320    0.6730 hn        1 MOL      0.175081
     38 H14        -6.3890    0.5710   -1.3430 h1        1 MOL      0.081531
     39 H15        -4.6130    0.9880   -3.0660 hc        1 MOL      0.014782
     40 H16        -4.9080   -0.6690   -3.1760 hc        1 MOL      0.014782
     41 N4         -6.7240   -1.9250   -1.4330 n         1 MOL     -0.254572
     42 C14        -7.0880   -3.2990   -1.0020 c3        1 MOL     -0.135973
     43 C15        -6.7800   -4.3890   -1.9930 c         1 MOL      0.554968
     44 O9         -7.6470   -4.6900   -2.7720 o         1 MOL     -0.550987
     45 H17        -7.1120   -1.6000   -2.3050 hn        1 MOL      0.289050
     46 H18        -8.0800   -3.2110   -0.5470 h1        1 MOL      0.100918
     47 H19        -6.5180   -3.5360   -0.1000 h1        1 MOL      0.100918
     48 N5         -5.5790   -4.9840   -2.1090 n         1 MOL     -0.448559
     49 C16        -4.3010   -4.4460   -1.4710 c3        1 MOL     -0.032944
     50 C17        -4.0520   -4.9390   -0.0020 c         1 MOL      0.443638
     51 O10        -3.6390   -6.1080    0.2340 o         1 MOL     -0.512223
     52 C18        -3.1330   -4.8570   -2.3580 c3        1 MOL     -0.164096
     53 C19        -1.7440   -4.2420   -1.9370 c         1 MOL      0.409544
     54 N6         -0.7730   -4.3310   -2.7550 n         1 MOL     -0.645282
     55 O11        -1.5090   -3.8080   -0.8190 o         1 MOL     -0.447269
     56 H20        -5.5600   -5.7570   -2.7570 hn        1 MOL      0.302768
     57 H21        -4.3410   -3.3520   -1.4590 h1        1 MOL      0.120827
     58 H22        -3.1750   -4.6130   -3.4150 hc        1 MOL      0.092216
     59 H23        -2.8880   -5.9160   -2.2900 hc        1 MOL      0.092216
     60 H24        -0.9160   -4.8560   -3.6110 hn        1 MOL      0.336856
     61 H25         0.0980   -3.8700   -2.5580 hn        1 MOL      0.336856
     62 N7         -4.2760   -4.0690    1.0000 n         1 MOL     -0.277712
     63 C20        -4.1910   -4.3640    2.4700 c3        1 MOL     -0.078149
     64 C21        -2.7570   -4.7610    2.8570 c         1 MOL      0.559297
     65 O12        -2.5870   -5.3980    3.8400 o         1 MOL     -0.563644
     66 H26        -4.6350   -3.1870    0.6520 hn        1 MOL      0.236102
     67 H27        -4.8870   -5.1230    2.8390 h1        1 MOL      0.075236
     68 H28        -4.5170   -3.4850    3.0200 h1        1 MOL      0.075236
     69 N8         -1.7310   -4.2880    2.1500 n         1 MOL     -0.274781
     70 C22        -0.3280   -4.5590    2.4010 c3        1 MOL     -0.055034
     71 C23         0.5260   -3.3810    2.2000 c         1 MOL      0.465690
     72 O13         0.3240   -2.6440    1.2220 o         1 MOL     -0.532480
     73 C24         0.3260   -5.8060    1.7100 c3        1 MOL      0.525951
     74 C25        -0.4300   -7.0790    2.1970 c3        1 MOL     -0.311662
     75 O14         0.4140   -5.7330    0.2610 oh        1 MOL     -0.660468
     76 H29        -1.9490   -3.8040    1.2890 hn        1 MOL      0.159753
     77 H30        -0.1970   -4.7120    3.4730 h1        1 MOL      0.029343
     78 H31         1.2850   -5.8430    2.2390 h1        1 MOL     -0.041347
     79 H32        -0.1290   -5.0000   -0.0490 ho        1 MOL      0.430774
     80 H33        -0.2840   -7.2120    3.2680 hc        1 MOL      0.067108
     81 H34        -1.4340   -7.0090    1.7770 hc        1 MOL      0.067108
     82 H35         0.2060   -7.9100    1.8850 hc        1 MOL      0.067108
     83 N9          1.5640   -3.2420    3.0600 n         1 MOL     -0.441659
     84 C26         2.6750   -2.2680    2.8130 c3        1 MOL      0.076986
     85 C27         3.6460   -2.8520    1.8110 c         1 MOL      0.521615
     86 O15         4.4030   -3.7280    2.1810 o         1 MOL     -0.574203
     87 C28         3.3020   -1.7390    4.1290 c3        1 MOL      0.113795
     88 C29         3.8330   -0.2790    4.0830 c3        1 MOL      0.059378
     89 C30         2.1530   -1.7850    5.1940 c3        1 MOL     -0.478612
     90 C31         5.1920   -0.1740    3.4080 c3        1 MOL     -0.331467
     91 H36         1.7340   -4.0230    3.6730 hn        1 MOL      0.297173
     92 H37         2.2610   -1.3800    2.3300 h1        1 MOL      0.053519
     93 H38         4.1410   -2.3610    4.4450 hc        1 MOL      0.031067
     94 H39         3.9450    0.1710    5.0670 hc        1 MOL      0.007663
     95 H40         3.1780    0.4720    3.6170 hc        1 MOL      0.007663
     96 H41         2.3700   -1.1990    6.0890 hc        1 MOL      0.117321
     97 H42         1.2860   -1.2240    4.8400 hc        1 MOL      0.117321
     98 H43         2.0230   -2.8390    5.4480 hc        1 MOL      0.117321
     99 H44         5.1490   -0.3750    2.3290 hc        1 MOL      0.076818
    100 H45         5.6840    0.7820    3.5130 hc        1 MOL      0.076818
    101 H46         5.8050   -0.9690    3.8340 hc        1 MOL      0.076818
    102 N10         3.6800   -2.3320    0.5640 n         1 MOL     -0.469899
    103 C32         4.3930   -2.9120   -0.5420 c3        1 MOL      0.251264
    104 C33         5.2930   -1.9650   -1.3340 c         1 MOL      0.449312
    105 O16         5.7390   -2.0900   -2.4530 o         1 MOL     -0.546884
    106 C34         3.4720   -3.7560   -1.4860 c3        1 MOL      0.001255
    107 C35         2.4380   -2.9910   -2.2670 c         1 MOL      0.724788
    108 O17         2.5970   -2.7150   -3.4430 o         1 MOL     -0.694476
    109 O18         1.3350   -2.7660   -1.6970 o         1 MOL     -0.694476
    110 H47         3.0960   -1.5390    0.3570 hn        1 MOL      0.245831
    111 H48         5.1040   -3.6590   -0.1710 h1        1 MOL      0.014182
    112 H49         2.9200   -4.4810   -0.8890 hc        1 MOL     -0.037517
    113 H50         4.1540   -4.2520   -2.1700 hc        1 MOL     -0.037517
    114 N11         5.6480   -0.9250   -0.6360 n         1 MOL     -0.327101
    115 C36         6.6530    0.0480   -1.1050 c3        1 MOL      0.197549
    116 C37         6.4190    1.4200   -0.3920 c         1 MOL      0.269510
    117 O19         6.1780    1.5300    0.8100 o         1 MOL     -0.489462
    118 C38         8.1320   -0.4810   -0.9470 c3        1 MOL     -0.310789
    119 C39         9.3510    0.4440   -1.2240 ca        1 MOL      0.152827
    120 C40         9.6720    1.5070   -0.3370 ca        1 MOL     -0.188141
    121 C41        10.0680    0.3480   -2.4140 ca        1 MOL     -0.188141
    122 C42        10.5340    2.5240   -0.7490 ca        1 MOL     -0.097719
    123 C43        10.9890    1.3270   -2.7930 ca        1 MOL     -0.097719
    124 C44        11.2810    2.4420   -1.9640 ca        1 MOL     -0.138072
    125 H51         5.2940   -0.9020    0.3050 hn        1 MOL      0.168100
    126 H52         6.4440    0.2230   -2.1550 h1        1 MOL      0.054623
    127 H53         8.2730   -1.3900   -1.5290 hc        1 MOL      0.115055
    128 H54         8.2550   -0.8060    0.0910 hc        1 MOL      0.115055
    129 H55         9.0740    1.6700    0.5420 ha        1 MOL      0.125139
    130 H56         9.9420   -0.5420   -3.0190 ha        1 MOL      0.125139
    131 H57        10.6710    3.4170   -0.1660 ha        1 MOL      0.100064
    132 H58        11.4740    1.1260   -3.7360 ha        1 MOL      0.100064
    133 H59        12.0350    3.1470   -2.2610 ha        1 MOL      0.109839
    134 N12         6.7320    2.5310   -1.1330 n         1 MOL      0.198271
    135 C45         6.8180    3.9290   -0.6430 c3        1 MOL     -0.101810
    136 C46         5.5600    4.6290   -0.1730 c         1 MOL      0.571431
    137 O20         5.5790    5.8230    0.2180 o         1 MOL     -0.575304
    138 C47         7.4530    4.6640   -1.7470 c3        1 MOL     -0.287814
    139 C48         6.8250    4.1040   -2.9460 c3        1 MOL      0.127949
    140 C49         6.7100    2.6130   -2.6120 c3        1 MOL     -0.282634
    141 H60         7.5410    3.9100    0.1790 h1        1 MOL      0.078307
    142 H61         7.0570    5.6760   -1.7460 hc        1 MOL      0.097398
    143 H62         8.5360    4.5310   -1.8010 hc        1 MOL      0.097398
    144 H63         5.8550    4.5370   -3.1620 hc        1 MOL      0.012970
    145 H64         7.4230    4.2350   -3.8450 hc        1 MOL      0.012970
    146 H65         5.7880    2.1970   -3.0130 h1        1 MOL      0.092128
    147 H66         7.6190    2.0980   -2.9260 h1        1 MOL      0.092128
    148 N13         4.4700    3.8940   -0.0330 n         1 MOL     -0.352345
    149 C50         3.2080    4.3820    0.5930 c3        1 MOL     -0.096584
    150 C51         3.3090    4.6770    2.1010 c         1 MOL      0.460728
    151 O21         2.4260    5.2970    2.6660 o         1 MOL     -0.509429
    152 C52         2.0670    3.3230    0.3240 c3        1 MOL     -0.259747
    153 C53         2.3730    2.0450    1.1050 c3        1 MOL      0.002538
    154 C54         1.6880    0.8420    0.4950 c         1 MOL      0.712249
    155 O22         2.3700    0.0050   -0.1030 o         1 MOL     -0.721566
    156 O23         0.4820    0.7040    0.6870 o         1 MOL     -0.721566
    157 H67         4.3920    2.9820   -0.4710 hn        1 MOL      0.251324
    158 H68         3.0350    5.3560    0.1340 h1        1 MOL      0.129641
    159 H69         1.9040    3.0940   -0.7230 hc        1 MOL      0.109494
    160 H70         1.1960    3.7990    0.7760 hc        1 MOL      0.109494
    161 H71         2.0020    2.2220    2.1250 hc        1 MOL      0.031413
    162 H72         3.4360    1.9090    1.2300 hc        1 MOL      0.031413
    163 N14         4.4550    4.4190    2.7640 n         1 MOL     -0.123260
    164 C55         4.6270    4.8260    4.1340 c3        1 MOL     -0.164515
    165 H73         5.6600    5.1390    4.2930 h1        1 MOL      0.074938
    166 H74         3.9580    5.6580    4.3550 h1        1 MOL      0.074938
    167 H75         4.3970    3.9890    4.7940 h1        1 MOL      0.074938
    168 H76         5.1600    3.8940    2.2660 hn        1 MOL      0.167907
    169 Ca1        -0.4270   -1.1530   -0.8210 Ca        1 MOL      1.728318
    170 O24         0.3570   -0.0100   -3.0520 oh        1 MOL     -0.939438
    171 H77        -0.0570    0.7760   -3.4140 ho        1 MOL      0.444883
    172 H78         1.0530   -0.2220   -3.6750 ho        1 MOL      0.444883
    173 O25        -2.4760   -1.3660    0.9850 oh        1 MOL     -0.939438
    174 H79        -3.4130   -1.5630    1.0490 ho        1 MOL      0.444883
    175 H80        -2.2910   -0.8240    1.7570 ho        1 MOL      0.444883
@<TRIPOS>BOND
     1    1    2 1   
     2    1    4 1   
     3    1    5 1   
     4    1    6 1   
     5    2    3 2   
     6    2    7 1   
     7    7    8 1   
     8    7   15 1   
     9    8    9 1   
    10    8   11 1   
    11    8   16 1   
    12    9   10 2   
    13    9   19 1   
    14   11   12 1   
    15   11   17 1   
    16   11   18 1   
    17   12   13 1   
    18   12   14 1   
    19   19   20 1   
    20   19   24 1   
    21   20   21 1   
    22   20   23 1   
    23   20   25 1   
    24   21   22 2   
    25   21   29 1   
    26   23   26 1   
    27   23   27 1   
    28   23   28 1   
    29   29   30 1   
    30   29   37 1   
    31   30   31 1   
    32   30   33 1   
    33   30   38 1   
    34   31   32 2   
    35   31   41 1   
    36   33   34 1   
    37   33   39 1   
    38   33   40 1   
    39   34   35 1   
    40   34   36 1   
    41   41   42 1   
    42   41   45 1   
    43   42   43 1   
    44   42   46 1   
    45   42   47 1   
    46   43   44 2   
    47   43   48 1   
    48   48   49 1   
    49   48   56 1   
    50   49   50 1   
    51   49   52 1   
    52   49   57 1   
    53   50   51 2   
    54   50   62 1   
    55   52   53 1   
    56   52   58 1   
    57   52   59 1   
    58   53   54 1   
    59   53   55 2   
    60   54   60 1   
    61   54   61 1   
    62   62   63 1   
    63   62   66 1   
    64   63   64 1   
    65   63   67 1   
    66   63   68 1   
    67   64   65 2   
    68   64   69 1   
    69   69   70 1   
    70   69   76 1   
    71   70   71 1   
    72   70   73 1   
    73   70   77 1   
    74   71   72 2   
    75   71   83 1   
    76   73   74 1   
    77   73   75 1   
    78   73   78 1   
    79   74   80 1   
    80   74   81 1   
    81   74   82 1   
    82   75   79 1   
    83   83   84 1   
    84   83   91 1   
    85   84   85 1   
    86   84   87 1   
    87   84   92 1   
    88   85   86 2   
    89   85  102 1   
    90   87   88 1   
    91   87   89 1   
    92   87   93 1   
    93   88   90 1   
    94   88   94 1   
    95   88   95 1   
    96   89   96 1   
    97   89   97 1   
    98   89   98 1   
    99   90   99 1   
   100   90  100 1   
   101   90  101 1   
   102  102  103 1   
   103  102  110 1   
   104  103  104 1   
   105  103  106 1   
   106  103  111 1   
   107  104  105 2   
   108  104  114 1   
   109  106  107 1   
   110  106  112 1   
   111  106  113 1   
   112  107  108 1   
   113  107  109 1   
   114  114  115 1   
   115  114  125 1   
   116  115  116 1   
   117  115  118 1   
   118  115  126 1   
   119  116  117 2   
   120  116  134 1   
   121  118  119 1   
   122  118  127 1   
   123  118  128 1   
   124  119  120 ar  
   125  119  121 ar  
   126  120  122 ar  
   127  120  129 1   
   128  121  123 ar  
   129  121  130 1   
   130  122  124 ar  
   131  122  131 1   
   132  123  124 ar  
   133  123  132 1   
   134  124  133 1   
   135  134  135 1   
   136  134  140 1   
   137  135  136 1   
   138  135  138 1   
   139  135  141 1   
   140  136  137 2   
   141  136  148 1   
   142  138  139 1   
   143  138  142 1   
   144  138  143 1   
   145  139  140 1   
   146  139  144 1   
   147  139  145 1   
   148  140  146 1   
   149  140  147 1   
   150  148  149 1   
   151  148  157 1   
   152  149  150 1   
   153  149  152 1   
   154  149  158 1   
   155  150  151 2   
   156  150  163 1   
   157  152  153 1   
   158  152  159 1   
   159  152  160 1   
   160  153  154 1   
   161  153  161 1   
   162  153  162 1   
   163  154  155 1   
   164  154  156 1   
   165  163  164 1   
   166  163  168 1   
   167  164  165 1   
   168  164  166 1   
   169  164  167 1   
   170  170  171 1   
   171  170  172 1   
   172  173  174 1   
   173  173  175 1   
@<TRIPOS>SUBSTRUCTURE
     1 MOL         1 TEMP              0 ****  ****    0 ROOT
