@<TRIPOS>MOLECULE
MOL
  185   180     1     0     0
SMALL
resp


@<TRIPOS>ATOM
      1 C1         -6.0820    0.8820   -3.4480 c3        1 MOL     -0.427512
      2 C2         -6.6860    0.7480   -2.0940 c         1 MOL      0.465745
      3 O1         -5.9900    0.5400   -1.0980 o         1 MOL     -0.314720
      4 H1         -6.6490    0.2810   -4.1600 hc        1 MOL      0.132339
      5 H2         -6.1070    1.9280   -3.7560 hc        1 MOL      0.132339
      6 H3         -5.0490    0.5350   -3.4220 hc        1 MOL      0.132339
      7 N1         -7.9670    0.9370   -1.9430 n         1 MOL     -0.562100
      8 C3         -8.5970    1.2670   -0.6900 c3        1 MOL      0.082512
      9 C4         -8.3750    0.2070    0.3840 c         1 MOL      0.472369
     10 O2         -8.2110    0.4560    1.5930 o         1 MOL     -0.469778
     11 C5         -8.1900    2.6620   -0.2810 c3        1 MOL     -0.241667
     12 C6         -8.4070    3.7310   -1.4200 c         1 MOL      0.753511
     13 O3         -7.4970    4.3180   -2.0690 o         1 MOL     -0.687196
     14 O4         -9.5980    4.0400   -1.6110 o         1 MOL     -0.687196
     15 H4         -8.4570    1.1770   -2.7960 hn        1 MOL      0.341620
     16 H5         -9.6480    1.4030   -0.9150 h1        1 MOL      0.060513
     17 H6         -7.1530    2.7020    0.0570 hc        1 MOL      0.069538
     18 H7         -8.8620    2.8940    0.5440 hc        1 MOL      0.069538
     19 N2         -8.2360   -1.0720   -0.0560 n         1 MOL     -0.447668
     20 C7         -7.7340   -2.1890    0.7620 c3        1 MOL      0.115883
     21 C8         -6.2140   -2.5400    0.8420 c         1 MOL      0.476204
     22 O5         -5.8590   -3.4470    1.4990 o         1 MOL     -0.552784
     23 C9         -8.3560   -3.5710    0.2380 c3        1 MOL     -0.174490
     24 C10        -9.8080   -3.5510    0.6590 c3        1 MOL      0.347453
     25 C11       -10.5380   -4.7000    0.0800 c3        1 MOL     -0.274489
     26 C12       -10.5290   -4.9950   -1.4240 c3        1 MOL     -0.037237
     27 N3        -10.8810   -3.7570   -2.1720 n4        1 MOL     -0.442547
     28 H8         -8.3450   -1.1670   -1.0640 hn        1 MOL      0.200503
     29 H9         -8.1590   -2.1850    1.7660 h1        1 MOL      0.093427
     30 H10        -7.8140   -4.4200    0.6620 hc        1 MOL      0.052147
     31 H11        -8.2320   -3.6340   -0.8370 hc        1 MOL      0.052147
     32 H12       -10.2570   -2.6170    0.3070 hc        1 MOL     -0.053943
     33 H13       -10.0020   -3.5870    1.7220 hc        1 MOL     -0.053943
     34 H14       -11.5890   -4.7390    0.3480 hc        1 MOL      0.101968
     35 H15       -10.1420   -5.6660    0.4090 hc        1 MOL      0.101968
     36 H16       -11.2450   -5.7490   -1.7280 hx        1 MOL      0.122738
     37 H17        -9.5110   -5.3130   -1.6570 hx        1 MOL      0.122738
     38 H18       -11.6740   -3.2650   -1.7840 hn        1 MOL      0.343130
     39 H19       -10.1050   -3.1030   -2.1660 hn        1 MOL      0.343130
     40 H20       -11.1970   -3.9970   -3.0960 hn        1 MOL      0.343130
     41 N4         -5.3660   -1.7440    0.2170 n         1 MOL     -0.307825
     42 C13        -3.9080   -1.9200    0.2310 c3        1 MOL     -0.163979
     43 C14        -3.3140   -1.8830    1.6410 c         1 MOL      0.854868
     44 O6         -3.5630   -0.9750    2.4330 o         1 MOL     -0.532578
     45 C15        -3.2220   -0.9880   -0.7400 c3        1 MOL     -0.010427
     46 C16        -1.7130   -1.0980   -0.7480 c         1 MOL      0.666414
     47 O7         -1.0670   -0.5440    0.1770 o         1 MOL     -0.756974
     48 O8         -1.1620   -1.7470   -1.6090 o         1 MOL     -0.756974
     49 H21        -5.7520   -0.9770   -0.3140 hn        1 MOL      0.177524
     50 H22        -3.7770   -2.9300   -0.1490 h1        1 MOL      0.064411
     51 H23        -3.6200   -0.0140   -0.4750 hc        1 MOL      0.025717
     52 H24        -3.5430   -1.2580   -1.7410 hc        1 MOL      0.025717
     53 N5         -2.5440   -2.9160    2.0090 n         1 MOL     -0.518945
     54 C17        -2.2050   -3.3200    3.4330 c3        1 MOL     -0.022860
     55 C18        -1.6140   -2.2040    4.2450 c         1 MOL      0.438083
     56 O9         -2.1760   -1.8170    5.2960 o         1 MOL     -0.525972
     57 H25        -2.4640   -3.7010    1.3760 hn        1 MOL      0.266022
     58 H26        -1.4860   -4.1390    3.3950 h1        1 MOL      0.083389
     59 H27        -3.1150   -3.6530    3.9230 h1        1 MOL      0.083389
     60 N6         -0.4280   -1.7820    3.8320 n         1 MOL     -0.337923
     61 C19         0.2630   -0.6700    4.4740 c3        1 MOL      0.099116
     62 C20        -0.3000    0.7300    4.0540 c         1 MOL      0.348521
     63 O10         0.3470    1.6650    4.5390 o         1 MOL     -0.513077
     64 C21         1.7730   -0.8720    4.2310 c3        1 MOL     -0.286414
     65 C22         2.1880   -0.5600    2.7910 c         1 MOL      0.739867
     66 N7          2.8740    0.5320    2.6050 n         1 MOL     -0.810578
     67 O11         1.7470   -1.1640    1.8820 o         1 MOL     -0.655863
     68 H28         0.0560   -2.2400    3.0700 hn        1 MOL      0.232611
     69 H29         0.0860   -0.8210    5.5440 h1        1 MOL      0.103309
     70 H30         2.0290   -1.8640    4.6170 hc        1 MOL      0.096616
     71 H31         2.3330   -0.1930    4.8780 hc        1 MOL      0.096616
     72 H32         3.1950    1.0620    3.4060 hn        1 MOL      0.375013
     73 H33         3.1450    0.7980    1.6670 hn        1 MOL      0.375013
     74 N8         -1.3980    0.8900    3.2630 n         1 MOL     -0.032150
     75 C23        -1.8610    2.2100    2.9920 c3        1 MOL     -0.249192
     76 C24        -1.2560    3.0670    1.8480 c         1 MOL      0.482911
     77 O12        -1.1010    4.3000    1.8600 o         1 MOL     -0.554379
     78 H34        -1.9700    0.1100    2.9690 hn        1 MOL      0.140327
     79 H35        -1.8600    2.7750    3.9250 h1        1 MOL      0.129907
     80 H36        -2.9290    2.0950    2.7940 h1        1 MOL      0.129907
     81 N9         -0.6710    2.4680    0.8080 n         1 MOL     -0.217952
     82 C25         0.1130    3.1480   -0.2300 c3        1 MOL      0.363449
     83 C26         1.4050    2.3660   -0.5620 c         1 MOL      0.083574
     84 O13         1.5660    1.1640   -0.2200 o         1 MOL     -0.418331
     85 C27        -0.7370    3.3140   -1.5140 c3        1 MOL     -0.140472
     86 C28        -1.9490    4.2120   -1.3290 ca        1 MOL     -0.033294
     87 C29        -1.9800    5.5670   -1.6190 ca        1 MOL     -0.085782
     88 C30        -3.1910    3.6170   -1.0240 ca        1 MOL     -0.085782
     89 C31        -3.1710    6.2940   -1.6420 ca        1 MOL     -0.323765
     90 C32        -4.4010    4.2910   -1.1060 ca        1 MOL     -0.323765
     91 C33        -4.4140    5.6400   -1.4110 ca        1 MOL      0.455598
     92 O14        -5.6200    6.2580   -1.4560 oh        1 MOL     -0.560677
     93 H37        -0.6340    1.4530    0.8070 hn        1 MOL      0.153529
     94 H38         0.4660    4.1380    0.0670 h1        1 MOL      0.000686
     95 H39        -1.1860    2.3620   -1.7700 hc        1 MOL      0.034848
     96 H40        -0.1350    3.7210   -2.3280 hc        1 MOL      0.034848
     97 H41        -1.0990    6.1910   -1.7320 ha        1 MOL      0.082520
     98 H42        -3.2620    2.5430   -0.9230 ha        1 MOL      0.082520
     99 H43        -3.2370    7.3710   -1.7430 ha        1 MOL      0.152452
    100 H44        -5.2970    3.6960   -1.0230 ha        1 MOL      0.152452
    101 H45        -6.2840    5.5690   -1.4120 ho        1 MOL      0.412063
    102 N10         2.3780    3.0400   -1.0630 n         1 MOL     -0.302987
    103 C34         3.6370    2.4400   -1.4310 c3        1 MOL      0.265992
    104 C35         4.5020    2.2250   -0.1400 c         1 MOL      0.396653
    105 O15         4.7660    1.1010    0.1770 o         1 MOL     -0.349632
    106 C36         4.3380    3.3230   -2.5120 c3        1 MOL      0.128067
    107 C37         3.5750    3.5510   -3.8590 c3        1 MOL     -0.104908
    108 C38         5.7410    2.7650   -2.6900 c3        1 MOL     -0.358161
    109 C39         3.5180    2.2520   -4.6490 c3        1 MOL     -0.045060
    110 H46         2.1720    3.9990   -1.3430 hn        1 MOL      0.238497
    111 H47         3.4990    1.4320   -1.8060 h1        1 MOL      0.028593
    112 H48         4.4020    4.3080   -2.0430 hc        1 MOL     -0.085800
    113 H49         4.1220    4.2950   -4.4490 hc        1 MOL      0.052345
    114 H50         2.5580    3.8940   -3.6430 hc        1 MOL      0.052345
    115 H51         6.3450    2.9840   -1.8030 hc        1 MOL      0.102175
    116 H52         5.5290    1.7080   -2.8220 hc        1 MOL      0.102175
    117 H53         6.1900    3.2380   -3.5620 hc        1 MOL      0.102175
    118 H54         2.9720    1.4840   -4.1140 hc        1 MOL      0.017902
    119 H55         2.9350    2.4280   -5.5490 hc        1 MOL      0.017902
    120 H56         4.5290    1.8650   -4.7730 hc        1 MOL      0.017902
    121 N11         4.7760    3.2900    0.6620 n         1 MOL     -0.421915
    122 C40         5.3900    3.1360    1.9570 c3        1 MOL      0.023309
    123 C41         6.7750    2.6020    1.9070 c         1 MOL      0.331796
    124 O16         7.1130    1.7840    2.7070 o         1 MOL     -0.425686
    125 C42         5.2090    4.4540    2.6990 c3        1 MOL      0.310105
    126 O17         3.8770    4.6020    3.0910 oh        1 MOL     -0.573325
    127 H57         4.3150    4.1480    0.3960 hn        1 MOL      0.264584
    128 H58         4.8970    2.3570    2.5530 h1        1 MOL      0.088336
    129 H59         5.4280    5.3520    2.1280 h1        1 MOL      0.012342
    130 H60         5.8860    4.4910    3.5560 h1        1 MOL      0.012342
    131 H61         3.3800    4.8260    2.2970 ho        1 MOL      0.374421
    132 N12         7.5300    2.8790    0.8130 n         1 MOL     -0.518360
    133 C43         8.7940    2.1590    0.3780 c3        1 MOL      0.534027
    134 C44         8.7310    0.5740    0.3640 c         1 MOL      0.274351
    135 O18         9.8040   -0.0910    0.4050 o         1 MOL     -0.509083
    136 C45        10.0890    2.6960    0.9990 c3        1 MOL     -0.467573
    137 H62         7.3140    3.6760    0.2250 hn        1 MOL      0.259995
    138 H63         8.8590    2.4120   -0.6780 h1        1 MOL     -0.040660
    139 H64         9.9840    2.5330    2.0740 hc        1 MOL      0.124835
    140 H65        10.9390    2.0740    0.7230 hc        1 MOL      0.124835
    141 H66        10.2510    3.7350    0.7040 hc        1 MOL      0.124835
    142 N13         7.5290   -0.0190    0.2810 n         1 MOL     -0.255643
    143 C46         7.4130   -1.4900    0.5930 c3        1 MOL      0.440650
    144 C47         6.9570   -2.1770   -0.7240 c         1 MOL      0.253861
    145 O19         6.3700   -1.6050   -1.6620 o         1 MOL     -0.429026
    146 C48         6.4640   -1.5940    1.7430 c3        1 MOL     -0.117967
    147 H67         6.6770    0.4330   -0.0280 hn        1 MOL      0.024077
    148 H68         8.3530   -1.9930    0.8310 h1        1 MOL     -0.039005
    149 H69         6.7190   -0.8990    2.5420 hc        1 MOL      0.030272
    150 H70         5.4240   -1.4450    1.4460 hc        1 MOL      0.030272
    151 H71         6.5890   -2.6080    2.1090 hc        1 MOL      0.030272
    152 N14         7.0150   -3.4970   -0.6420 n         1 MOL     -0.384987
    153 C49         6.4850   -4.5590   -1.5310 c3        1 MOL     -0.341809
    154 C50         6.8270   -4.4740   -3.0020 c         1 MOL      0.608337
    155 O20         6.2550   -5.1540   -3.7940 o         1 MOL     -0.505116
    156 C51         4.9600   -4.7120   -1.3960 c3        1 MOL      0.340192
    157 C52         4.3960   -5.1250   -0.0020 c3        1 MOL     -0.168670
    158 C53         2.9440   -4.6760    0.0010 c         1 MOL      0.759960
    159 O21         2.6710   -3.5210    0.3850 o         1 MOL     -0.753438
    160 O22         2.0110   -5.4050   -0.4000 o         1 MOL     -0.753438
    161 H72         7.5750   -3.7730    0.1440 hn        1 MOL      0.319633
    162 H73         7.0680   -5.4210   -1.1910 h1        1 MOL      0.142764
    163 H74         4.5240   -5.3380   -2.1780 hc        1 MOL     -0.032351
    164 H75         4.5780   -3.7090   -1.5610 hc        1 MOL     -0.032351
    165 H76         5.0150   -4.7230    0.7940 hc        1 MOL      0.018785
    166 H77         4.4520   -6.2060    0.0420 hc        1 MOL      0.018785
    167 N15         7.8590   -3.6790   -3.3300 n         1 MOL     -0.446439
    168 C54         8.2540   -3.1680   -4.6650 c3        1 MOL      0.037934
    169 H78         7.7720   -3.7650   -5.4390 h1        1 MOL      0.049138
    170 H79         7.9420   -2.1280   -4.7640 h1        1 MOL      0.049138
    171 H80         9.3360   -3.2360   -4.7760 h1        1 MOL      0.049138
    172 H81         8.0240   -3.0590   -2.5490 hn        1 MOL      0.273152
    173 Ca1         1.1320   -1.7210   -0.5790 Ca        1 MOL      1.760987
    174 O23         3.4870   -0.7970   -1.2490 oh        1 MOL     -0.817629
    175 H82         4.2330   -1.0600   -1.7960 ho        1 MOL      0.399273
    176 H83         3.8220   -0.0690   -0.7250 ho        1 MOL      0.399273
    177 O24         0.9070   -0.3400   -3.1570 oh        1 MOL     -0.817629
    178 H84         1.0670    0.4980   -3.5930 ho        1 MOL      0.399273
    179 H85         0.0340   -0.5940   -3.4370 ho        1 MOL      0.399273
    180 O25         1.3420   -3.7470   -2.3510 oh        1 MOL     -0.817629
    181 H86         1.1360   -4.0660   -3.2350 ho        1 MOL      0.399273
    182 H87         1.2150   -4.5190   -1.7930 ho        1 MOL      0.399273
    183 O26        -0.3020   -4.0100    0.1540 oh        1 MOL     -0.817629
    184 H88        -0.9090   -4.7480    0.1560 ho        1 MOL      0.399273
    185 H89         0.5670   -4.4110    0.1060 ho        1 MOL      0.399273
@<TRIPOS>BOND
     1    1    2 1   
     2    1    4 1   
     3    1    5 1   
     4    1    6 1   
     5    2    3 2   
     6    2    7 1   
     7    7    8 1   
     8    7   15 1   
     9    8    9 1   
    10    8   11 1   
    11    8   16 1   
    12    9   10 2   
    13    9   19 1   
    14   11   12 1   
    15   11   17 1   
    16   11   18 1   
    17   12   13 1   
    18   12   14 1   
    19   19   20 1   
    20   19   28 1   
    21   20   21 1   
    22   20   23 1   
    23   20   29 1   
    24   21   22 2   
    25   21   41 1   
    26   23   24 1   
    27   23   30 1   
    28   23   31 1   
    29   24   25 1   
    30   24   32 1   
    31   24   33 1   
    32   25   26 1   
    33   25   34 1   
    34   25   35 1   
    35   26   27 1   
    36   26   36 1   
    37   26   37 1   
    38   27   38 1   
    39   27   39 1   
    40   27   40 1   
    41   41   42 1   
    42   41   49 1   
    43   42   43 1   
    44   42   45 1   
    45   42   50 1   
    46   43   44 2   
    47   43   53 1   
    48   45   46 1   
    49   45   51 1   
    50   45   52 1   
    51   46   47 1   
    52   46   48 1   
    53   53   54 1   
    54   53   57 1   
    55   54   55 1   
    56   54   58 1   
    57   54   59 1   
    58   55   56 2   
    59   55   60 1   
    60   60   61 1   
    61   60   68 1   
    62   61   62 1   
    63   61   64 1   
    64   61   69 1   
    65   62   63 2   
    66   62   74 1   
    67   64   65 1   
    68   64   70 1   
    69   64   71 1   
    70   65   66 1   
    71   65   67 2   
    72   66   72 1   
    73   66   73 1   
    74   74   75 1   
    75   74   78 1   
    76   75   76 1   
    77   75   79 1   
    78   75   80 1   
    79   76   77 2   
    80   76   81 1   
    81   81   82 1   
    82   81   93 1   
    83   82   83 1   
    84   82   85 1   
    85   82   94 1   
    86   83   84 2   
    87   83  102 1   
    88   85   86 1   
    89   85   95 1   
    90   85   96 1   
    91   86   87 ar  
    92   86   88 ar  
    93   87   89 ar  
    94   87   97 1   
    95   88   90 ar  
    96   88   98 1   
    97   89   91 ar  
    98   89   99 1   
    99   90   91 ar  
   100   90  100 1   
   101   91   92 1   
   102   92  101 1   
   103  102  103 1   
   104  102  110 1   
   105  103  104 1   
   106  103  106 1   
   107  103  111 1   
   108  104  105 2   
   109  104  121 1   
   110  106  107 1   
   111  106  108 1   
   112  106  112 1   
   113  107  109 1   
   114  107  113 1   
   115  107  114 1   
   116  108  115 1   
   117  108  116 1   
   118  108  117 1   
   119  109  118 1   
   120  109  119 1   
   121  109  120 1   
   122  121  122 1   
   123  121  127 1   
   124  122  123 1   
   125  122  125 1   
   126  122  128 1   
   127  123  124 2   
   128  123  132 1   
   129  125  126 1   
   130  125  129 1   
   131  125  130 1   
   132  126  131 1   
   133  132  133 1   
   134  132  137 1   
   135  133  134 1   
   136  133  136 1   
   137  133  138 1   
   138  134  135 2   
   139  134  142 1   
   140  136  139 1   
   141  136  140 1   
   142  136  141 1   
   143  142  143 1   
   144  142  147 1   
   145  143  144 1   
   146  143  146 1   
   147  143  148 1   
   148  144  145 2   
   149  144  152 1   
   150  146  149 1   
   151  146  150 1   
   152  146  151 1   
   153  152  153 1   
   154  152  161 1   
   155  153  154 1   
   156  153  156 1   
   157  153  162 1   
   158  154  155 2   
   159  154  167 1   
   160  156  157 1   
   161  156  163 1   
   162  156  164 1   
   163  157  158 1   
   164  157  165 1   
   165  157  166 1   
   166  158  159 1   
   167  158  160 1   
   168  167  168 1   
   169  167  172 1   
   170  168  169 1   
   171  168  170 1   
   172  168  171 1   
   173  174  175 1   
   174  174  176 1   
   175  177  178 1   
   176  177  179 1   
   177  180  181 1   
   178  180  182 1   
   179  183  184 1   
   180  183  185 1   
@<TRIPOS>SUBSTRUCTURE
     1 MOL         1 TEMP              0 ****  ****    0 ROOT
